LTspice 24.1.5 for Windows
Circuit: C:\users\matt\My Documents\Education\Graduate\AdvancedEmbeddedSoftware\AdvancedEmbeddedSoftware\final-project\hardware\HBrdige.net
Start Time: Tue Apr  8 21:39:12 2025
solver = Normal
Maximum thread count: 24
tnom = 27
temp = 27
method = trap
Direct Newton iteration for .op point succeeded.
Warning: Simulation tolerance relaxed to achieve convergence from 1.0005957144162352e-02 to 1.0005957144162362e-02 seconds.
Warning: Simulation tolerance relaxed to achieve convergence from 1.0005957144162362e-02 to 1.0005957144162372e-02 seconds.
Warning: Simulation tolerance relaxed to achieve convergence from 1.0005957144162372e-02 to 1.0005957144162383e-02 seconds.
Warning: Simulation tolerance relaxed to achieve convergence from 1.0005957144162383e-02 to 1.0005957144162393e-02 seconds.
Warning: Simulation tolerance relaxed to achieve convergence from 1.0005957144162393e-02 to 1.0005957144162404e-02 seconds.
Warning: Simulation tolerance relaxed to achieve convergence from 1.0005957144162404e-02 to 1.0005957144162414e-02 seconds.
Warning: Simulation tolerance relaxed to achieve convergence from 1.0005957144162414e-02 to 1.0005957144162424e-02 seconds.
Warning: Simulation tolerance relaxed to achieve convergence from 1.0005957144162424e-02 to 1.0005957144162435e-02 seconds.
Warning: Simulation tolerance relaxed to achieve convergence from 1.0005957144162435e-02 to 1.0005957144162445e-02 seconds.
Warning: Simulation tolerance relaxed to achieve convergence from 1.0005957144162445e-02 to 1.0005957144162456e-02 seconds.
Warning: Simulation tolerance relaxed to achieve convergence from 1.0005957144162456e-02 to 1.0005957144162466e-02 seconds.
Warning: Simulation tolerance relaxed to achieve convergence from 1.0005957144162466e-02 to 1.0005957144162476e-02 seconds.
Warning: Simulation tolerance relaxed to achieve convergence from 1.0005957144162476e-02 to 1.0005957144162487e-02 seconds.
Warning: Simulation tolerance relaxed to achieve convergence from 1.0005957144162487e-02 to 1.0005957144162497e-02 seconds.
Warning: Simulation tolerance relaxed to achieve convergence from 1.0005957144162497e-02 to 1.0005957144162508e-02 seconds.
Warning: Simulation tolerance relaxed to achieve convergence from 1.0005957144162508e-02 to 1.0005957144162518e-02 seconds.
Warning: Simulation tolerance relaxed to achieve convergence from 1.0005957144162518e-02 to 1.0005957144162528e-02 seconds.
Warning: Simulation tolerance relaxed to achieve convergence from 1.0005957144162528e-02 to 1.0005957144162539e-02 seconds.
Warning: Simulation tolerance relaxed to achieve convergence from 1.0005957144162539e-02 to 1.0005957144162549e-02 seconds.
Warning: Simulation tolerance relaxed to achieve convergence from 1.0005957144162549e-02 to 1.0005957144162560e-02 seconds.
Warning: Simulation tolerance relaxed to achieve convergence from 1.0005957144162560e-02 to 1.0005957144162570e-02 seconds.
Warning: Simulation tolerance relaxed to achieve convergence from 1.0005957144162570e-02 to 1.0005957144162581e-02 seconds.
Warning: Simulation tolerance relaxed to achieve convergence from 1.0005957144162581e-02 to 1.0005957144162591e-02 seconds.
Warning: Simulation tolerance relaxed to achieve convergence from 1.0005957144162591e-02 to 1.0005957144162601e-02 seconds.
Warning: Simulation tolerance relaxed to achieve convergence from 1.0005957144162601e-02 to 1.0005957144162612e-02 seconds.
Warning: Simulation tolerance relaxed to achieve convergence from 1.0005957144162612e-02 to 1.0005957144162622e-02 seconds.
Warning: Simulation tolerance relaxed to achieve convergence from 1.0005957144162622e-02 to 1.0005957144162633e-02 seconds.
Warning: Simulation tolerance relaxed to achieve convergence from 1.0005957144162633e-02 to 1.0005957144162643e-02 seconds.
Warning: Simulation tolerance relaxed to achieve convergence from 1.0005957144162643e-02 to 1.0005957144162653e-02 seconds.
Warning: Simulation tolerance relaxed to achieve convergence from 1.0005957144162653e-02 to 1.0005957144162664e-02 seconds.
Warning: Simulation tolerance relaxed to achieve convergence from 1.0005957144162664e-02 to 1.0005957144162674e-02 seconds.
Warning: Simulation tolerance relaxed to achieve convergence from 1.0005957144162674e-02 to 1.0005957144162685e-02 seconds.
Warning: Simulation tolerance relaxed to achieve convergence from 1.0005957144162685e-02 to 1.0005957144162695e-02 seconds.
Warning: Simulation tolerance relaxed to achieve convergence from 1.0005957144162695e-02 to 1.0005957144162705e-02 seconds.
Warning: Simulation tolerance relaxed to achieve convergence from 1.0005957144162705e-02 to 1.0005957144162716e-02 seconds.
Warning: Simulation tolerance relaxed to achieve convergence from 1.0005957144162716e-02 to 1.0005957144162726e-02 seconds.
Warning: Simulation tolerance relaxed to achieve convergence from 1.0005957144162726e-02 to 1.0005957144162737e-02 seconds.
Warning: Simulation tolerance relaxed to achieve convergence from 1.0005957144162737e-02 to 1.0005957144162747e-02 seconds.
Warning: Simulation tolerance relaxed to achieve convergence from 1.0005957144162747e-02 to 1.0005957144162757e-02 seconds.
Warning: Simulation tolerance relaxed to achieve convergence from 1.0005957144162757e-02 to 1.0005957144162768e-02 seconds.
Warning: Simulation tolerance relaxed to achieve convergence from 1.0005957144162768e-02 to 1.0005957144162778e-02 seconds.
Warning: Simulation tolerance relaxed to achieve convergence from 1.0005957144162778e-02 to 1.0005957144162789e-02 seconds.
Warning: Simulation tolerance relaxed to achieve convergence from 1.0005957144162789e-02 to 1.0005957144162799e-02 seconds.
Warning: Simulation tolerance relaxed to achieve convergence from 1.0005957144162799e-02 to 1.0005957144162810e-02 seconds.
Warning: Simulation tolerance relaxed to achieve convergence from 1.0005957144162810e-02 to 1.0005957144162820e-02 seconds.
Warning: Simulation tolerance relaxed to achieve convergence from 1.0005957144162820e-02 to 1.0005957144162830e-02 seconds.
Warning: Simulation tolerance relaxed to achieve convergence from 1.0005957144162830e-02 to 1.0005957144162841e-02 seconds.
Warning: Simulation tolerance relaxed to achieve convergence from 1.0005957144162841e-02 to 1.0005957144162851e-02 seconds.
Warning: Simulation tolerance relaxed to achieve convergence from 1.0005957144162851e-02 to 1.0005957144162862e-02 seconds.
Warning: Simulation tolerance relaxed to achieve convergence from 1.0005957144162862e-02 to 1.0005957144162872e-02 seconds.
Warning: Simulation tolerance relaxed to achieve convergence from 1.0005957144162872e-02 to 1.0005957144162882e-02 seconds.
Warning: Simulation tolerance relaxed to achieve convergence from 1.0005957144162882e-02 to 1.0005957144162893e-02 seconds.
Warning: Simulation tolerance relaxed to achieve convergence from 1.0005957144162893e-02 to 1.0005957144162903e-02 seconds.
Warning: Simulation tolerance relaxed to achieve convergence from 1.0005957144162903e-02 to 1.0005957144162914e-02 seconds.
Warning: Simulation tolerance relaxed to achieve convergence from 1.0005957144162914e-02 to 1.0005957144162924e-02 seconds.
Warning: Simulation tolerance relaxed to achieve convergence from 1.0005957144162924e-02 to 1.0005957144162934e-02 seconds.
Warning: Simulation tolerance relaxed to achieve convergence from 1.0005957144162934e-02 to 1.0005957144162945e-02 seconds.
Warning: Simulation tolerance relaxed to achieve convergence from 1.0005957144162945e-02 to 1.0005957144162955e-02 seconds.
Warning: Simulation tolerance relaxed to achieve convergence from 1.0005957144162955e-02 to 1.0005957144162966e-02 seconds.
Warning: Simulation tolerance relaxed to achieve convergence from 1.0005957144162966e-02 to 1.0005957144162976e-02 seconds.
Warning: Simulation tolerance relaxed to achieve convergence from 1.0005957144162976e-02 to 1.0005957144162986e-02 seconds.
Warning: Simulation tolerance relaxed to achieve convergence from 1.0005957144162986e-02 to 1.0005957144162997e-02 seconds.
Warning: Simulation tolerance relaxed to achieve convergence from 1.0005957144162997e-02 to 1.0005957144163007e-02 seconds.
Warning: Simulation tolerance relaxed to achieve convergence from 1.0005957144163007e-02 to 1.0005957144163018e-02 seconds.
Warning: Simulation tolerance relaxed to achieve convergence from 1.0005957144163018e-02 to 1.0005957144163028e-02 seconds.
Warning: Simulation tolerance relaxed to achieve convergence from 1.0005957144163028e-02 to 1.0005957144163038e-02 seconds.
Warning: Simulation tolerance relaxed to achieve convergence from 1.0005957144163038e-02 to 1.0005957144163049e-02 seconds.
Warning: Simulation tolerance relaxed to achieve convergence from 1.0005957144163049e-02 to 1.0005957144163059e-02 seconds.
Warning: Simulation tolerance relaxed to achieve convergence from 1.0005957144163059e-02 to 1.0005957144163070e-02 seconds.
Warning: Simulation tolerance relaxed to achieve convergence from 1.0005957144163070e-02 to 1.0005957144163080e-02 seconds.
Warning: Simulation tolerance relaxed to achieve convergence from 1.0005957144163080e-02 to 1.0005957144163091e-02 seconds.
Warning: Simulation tolerance relaxed to achieve convergence from 1.0005957144163091e-02 to 1.0005957144163101e-02 seconds.
Warning: Simulation tolerance relaxed to achieve convergence from 1.0005957144163101e-02 to 1.0005957144163111e-02 seconds.
Warning: Simulation tolerance relaxed to achieve convergence from 1.0005957144163111e-02 to 1.0005957144163122e-02 seconds.
Warning: Simulation tolerance relaxed to achieve convergence from 1.0005957144163122e-02 to 1.0005957144163132e-02 seconds.
Warning: Simulation tolerance relaxed to achieve convergence from 1.0005957144163132e-02 to 1.0005957144163143e-02 seconds.
Warning: Simulation tolerance relaxed to achieve convergence from 1.0005957144163143e-02 to 1.0005957144163153e-02 seconds.
Warning: Simulation tolerance relaxed to achieve convergence from 1.0005957144163153e-02 to 1.0005957144163163e-02 seconds.
Warning: Simulation tolerance relaxed to achieve convergence from 1.0005957144163163e-02 to 1.0005957144163174e-02 seconds.
Warning: Simulation tolerance relaxed to achieve convergence from 1.0005957144163174e-02 to 1.0005957144163184e-02 seconds.
Warning: Simulation tolerance relaxed to achieve convergence from 1.0005957144163184e-02 to 1.0005957144163195e-02 seconds.
Warning: Simulation tolerance relaxed to achieve convergence from 1.0005957144163195e-02 to 1.0005957144163205e-02 seconds.
Warning: Simulation tolerance relaxed to achieve convergence from 1.0005957144163205e-02 to 1.0005957144163215e-02 seconds.
Warning: Simulation tolerance relaxed to achieve convergence from 1.0005957144163215e-02 to 1.0005957144163226e-02 seconds.
Warning: Simulation tolerance relaxed to achieve convergence from 1.0005957144163226e-02 to 1.0005957144163236e-02 seconds.
Warning: Simulation tolerance relaxed to achieve convergence from 1.0005957144163236e-02 to 1.0005957144163247e-02 seconds.
Warning: Simulation tolerance relaxed to achieve convergence from 1.0005957144163247e-02 to 1.0005957144163257e-02 seconds.
Warning: Simulation tolerance relaxed to achieve convergence from 1.0005957144163257e-02 to 1.0005957144163267e-02 seconds.
Warning: Simulation tolerance relaxed to achieve convergence from 1.0005957144163267e-02 to 1.0005957144163278e-02 seconds.
Warning: Simulation tolerance relaxed to achieve convergence from 1.0005957144163278e-02 to 1.0005957144163288e-02 seconds.
Warning: Simulation tolerance relaxed to achieve convergence from 1.0005957144163288e-02 to 1.0005957144163299e-02 seconds.
Warning: Simulation tolerance relaxed to achieve convergence from 1.0005957144163299e-02 to 1.0005957144163309e-02 seconds.
Warning: Simulation tolerance relaxed to achieve convergence from 1.0005957144163309e-02 to 1.0005957144163320e-02 seconds.
Warning: Simulation tolerance relaxed to achieve convergence from 1.0005957144163320e-02 to 1.0005957144163330e-02 seconds.
Warning: Simulation tolerance relaxed to achieve convergence from 1.0005957144163330e-02 to 1.0005957144163340e-02 seconds.
Warning: Simulation tolerance relaxed to achieve convergence from 1.0005957144163340e-02 to 1.0005957144163351e-02 seconds.
Warning: Simulation tolerance relaxed to achieve convergence from 1.0005957144163351e-02 to 1.0005957144163361e-02 seconds.
Warning: Simulation tolerance relaxed to achieve convergence from 1.0005957144163361e-02 to 1.0005957144163372e-02 seconds.
Warning: Simulation tolerance relaxed to achieve convergence from 1.0005957144163372e-02 to 1.0005957144163382e-02 seconds.
Warning: Simulation tolerance relaxed to achieve convergence from 1.0005957144163382e-02 to 1.0005957144163392e-02 seconds.
Warning: Simulation tolerance relaxed to achieve convergence from 1.0005957144163392e-02 to 1.0005957144163403e-02 seconds.
Warning: Simulation tolerance relaxed to achieve convergence from 1.0005957144163403e-02 to 1.0005957144163413e-02 seconds.
Warning: Simulation tolerance relaxed to achieve convergence from 1.0005957144163413e-02 to 1.0005957144163424e-02 seconds.
Warning: Simulation tolerance relaxed to achieve convergence from 1.0005957144163424e-02 to 1.0005957144163434e-02 seconds.
Warning: Simulation tolerance relaxed to achieve convergence from 1.0005957144163434e-02 to 1.0005957144163444e-02 seconds.
Warning: Simulation tolerance relaxed to achieve convergence from 1.0005957144163444e-02 to 1.0005957144163455e-02 seconds.
Warning: Simulation tolerance relaxed to achieve convergence from 1.0005957144163455e-02 to 1.0005957144163465e-02 seconds.
Warning: Simulation tolerance relaxed to achieve convergence from 1.0005957144163465e-02 to 1.0005957144163476e-02 seconds.
Warning: Simulation tolerance relaxed to achieve convergence from 1.0005957144163476e-02 to 1.0005957144163486e-02 seconds.
Warning: Simulation tolerance relaxed to achieve convergence from 1.0005957144163486e-02 to 1.0005957144163496e-02 seconds.
Warning: Simulation tolerance relaxed to achieve convergence from 1.0005957144163496e-02 to 1.0005957144163507e-02 seconds.
Warning: Simulation tolerance relaxed to achieve convergence from 1.0005957144163507e-02 to 1.0005957144163517e-02 seconds.
Warning: Simulation tolerance relaxed to achieve convergence from 1.0005957144163517e-02 to 1.0005957144163528e-02 seconds.
Warning: Simulation tolerance relaxed to achieve convergence from 1.0005957144163528e-02 to 1.0005957144163538e-02 seconds.
Warning: Simulation tolerance relaxed to achieve convergence from 1.0005957144163538e-02 to 1.0005957144163549e-02 seconds.
Warning: Simulation tolerance relaxed to achieve convergence from 1.0005957144163549e-02 to 1.0005957144163559e-02 seconds.
Warning: Simulation tolerance relaxed to achieve convergence from 1.0005957144163559e-02 to 1.0005957144163569e-02 seconds.
Warning: Simulation tolerance relaxed to achieve convergence from 1.0005957144163569e-02 to 1.0005957144163580e-02 seconds.
Warning: Simulation tolerance relaxed to achieve convergence from 1.0005957144163580e-02 to 1.0005957144163590e-02 seconds.
Warning: Simulation tolerance relaxed to achieve convergence from 1.0005957144163590e-02 to 1.0005957144163601e-02 seconds.
Warning: Simulation tolerance relaxed to achieve convergence from 1.0005957144163601e-02 to 1.0005957144163611e-02 seconds.
Warning: Simulation tolerance relaxed to achieve convergence from 1.0005957144163611e-02 to 1.0005957144163621e-02 seconds.
Warning: Simulation tolerance relaxed to achieve convergence from 1.0005957144163621e-02 to 1.0005957144163632e-02 seconds.
Warning: Simulation tolerance relaxed to achieve convergence from 1.0005957144163632e-02 to 1.0005957144163642e-02 seconds.
Warning: Simulation tolerance relaxed to achieve convergence from 1.0005957144163642e-02 to 1.0005957144163653e-02 seconds.
Warning: Simulation tolerance relaxed to achieve convergence from 1.0005957144163653e-02 to 1.0005957144163663e-02 seconds.
Warning: Simulation tolerance relaxed to achieve convergence from 1.0005957144163663e-02 to 1.0005957144163673e-02 seconds.
Warning: Simulation tolerance relaxed to achieve convergence from 1.0005957144163673e-02 to 1.0005957144163684e-02 seconds.
Warning: Simulation tolerance relaxed to achieve convergence from 1.0005957144163684e-02 to 1.0005957144163694e-02 seconds.
Warning: Simulation tolerance relaxed to achieve convergence from 1.0005957144163694e-02 to 1.0005957144163705e-02 seconds.
Warning: Simulation tolerance relaxed to achieve convergence from 1.0005957144163705e-02 to 1.0005957144163715e-02 seconds.
Warning: Simulation tolerance relaxed to achieve convergence from 1.0005957144163715e-02 to 1.0005957144163725e-02 seconds.
Warning: Simulation tolerance relaxed to achieve convergence from 1.0005957144163725e-02 to 1.0005957144163736e-02 seconds.
Warning: Simulation tolerance relaxed to achieve convergence from 1.0005957144163736e-02 to 1.0005957144163746e-02 seconds.
Warning: Simulation tolerance relaxed to achieve convergence from 1.0005957144163746e-02 to 1.0005957144163757e-02 seconds.
Warning: Simulation tolerance relaxed to achieve convergence from 1.0005957144163757e-02 to 1.0005957144163767e-02 seconds.
Warning: Simulation tolerance relaxed to achieve convergence from 1.0005957144163767e-02 to 1.0005957144163777e-02 seconds.
Warning: Simulation tolerance relaxed to achieve convergence from 1.0005957144163777e-02 to 1.0005957144163788e-02 seconds.
Warning: Simulation tolerance relaxed to achieve convergence from 1.0005957144163788e-02 to 1.0005957144163798e-02 seconds.
Warning: Simulation tolerance relaxed to achieve convergence from 1.0005957144163798e-02 to 1.0005957144163809e-02 seconds.
Warning: Simulation tolerance relaxed to achieve convergence from 1.0005957144163809e-02 to 1.0005957144163819e-02 seconds.
Warning: Simulation tolerance relaxed to achieve convergence from 1.0005957144163819e-02 to 1.0005957144163830e-02 seconds.
Warning: Simulation tolerance relaxed to achieve convergence from 1.0005957144163830e-02 to 1.0005957144163840e-02 seconds.
Warning: Simulation tolerance relaxed to achieve convergence from 1.0005957144163840e-02 to 1.0005957144163850e-02 seconds.
Warning: Simulation tolerance relaxed to achieve convergence from 1.0005957144163850e-02 to 1.0005957144163861e-02 seconds.
Warning: Simulation tolerance relaxed to achieve convergence from 1.0005957144163861e-02 to 1.0005957144163871e-02 seconds.
Warning: Simulation tolerance relaxed to achieve convergence from 1.0005957144163871e-02 to 1.0005957144163882e-02 seconds.
Warning: Simulation tolerance relaxed to achieve convergence from 1.0005957144163882e-02 to 1.0005957144163892e-02 seconds.
Warning: Simulation tolerance relaxed to achieve convergence from 1.0005957144163892e-02 to 1.0005957144163902e-02 seconds.
Warning: Simulation tolerance relaxed to achieve convergence from 1.0005957144163902e-02 to 1.0005957144163913e-02 seconds.
Warning: Simulation tolerance relaxed to achieve convergence from 1.0005957144163913e-02 to 1.0005957144163923e-02 seconds.
Warning: Simulation tolerance relaxed to achieve convergence from 1.0005957144163923e-02 to 1.0005957144163934e-02 seconds.
Warning: Simulation tolerance relaxed to achieve convergence from 1.0005957144163934e-02 to 1.0005957144163944e-02 seconds.
Warning: Simulation tolerance relaxed to achieve convergence from 1.0005957144163944e-02 to 1.0005957144163954e-02 seconds.
Warning: Simulation tolerance relaxed to achieve convergence from 1.0005957144163954e-02 to 1.0005957144163965e-02 seconds.
Warning: Simulation tolerance relaxed to achieve convergence from 1.0005957144163965e-02 to 1.0005957144163975e-02 seconds.
Warning: Simulation tolerance relaxed to achieve convergence from 1.0005957144163975e-02 to 1.0005957144163986e-02 seconds.
Warning: Simulation tolerance relaxed to achieve convergence from 1.0005957144163986e-02 to 1.0005957144163996e-02 seconds.
Warning: Simulation tolerance relaxed to achieve convergence from 1.0005957144163996e-02 to 1.0005957144164006e-02 seconds.
Warning: Simulation tolerance relaxed to achieve convergence from 1.0005957144164006e-02 to 1.0005957144164017e-02 seconds.
Warning: Simulation tolerance relaxed to achieve convergence from 1.0005957144164017e-02 to 1.0005957144164027e-02 seconds.
Warning: Simulation tolerance relaxed to achieve convergence from 1.0005957144164027e-02 to 1.0005957144164038e-02 seconds.
Warning: Simulation tolerance relaxed to achieve convergence from 1.0005957144164038e-02 to 1.0005957144164048e-02 seconds.
Warning: Simulation tolerance relaxed to achieve convergence from 1.0005957144164048e-02 to 1.0005957144164059e-02 seconds.
Warning: Simulation tolerance relaxed to achieve convergence from 1.0005957144164059e-02 to 1.0005957144164069e-02 seconds.
Warning: Simulation tolerance relaxed to achieve convergence from 1.0005957144164069e-02 to 1.0005957144164079e-02 seconds.
Warning: Simulation tolerance relaxed to achieve convergence from 1.0005957144164079e-02 to 1.0005957144164090e-02 seconds.
Warning: Simulation tolerance relaxed to achieve convergence from 1.0005957144164090e-02 to 1.0005957144164100e-02 seconds.
Warning: Simulation tolerance relaxed to achieve convergence from 1.0005957144164100e-02 to 1.0005957144164111e-02 seconds.
Warning: Simulation tolerance relaxed to achieve convergence from 1.0005957144164111e-02 to 1.0005957144164121e-02 seconds.
Warning: Simulation tolerance relaxed to achieve convergence from 1.0005957144164121e-02 to 1.0005957144164131e-02 seconds.
Warning: Simulation tolerance relaxed to achieve convergence from 1.0005957144164131e-02 to 1.0005957144164142e-02 seconds.
Warning: Simulation tolerance relaxed to achieve convergence from 1.0005957144164142e-02 to 1.0005957144164152e-02 seconds.
Warning: Simulation tolerance relaxed to achieve convergence from 1.0005957144164152e-02 to 1.0005957144164163e-02 seconds.
Warning: Simulation tolerance relaxed to achieve convergence from 1.0005957144164163e-02 to 1.0005957144164173e-02 seconds.
Warning: Simulation tolerance relaxed to achieve convergence from 1.0005957144164173e-02 to 1.0005957144164183e-02 seconds.
Warning: Simulation tolerance relaxed to achieve convergence from 1.0005957144164183e-02 to 1.0005957144164194e-02 seconds.
Warning: Simulation tolerance relaxed to achieve convergence from 1.0005957144164194e-02 to 1.0005957144164204e-02 seconds.
Warning: Simulation tolerance relaxed to achieve convergence from 1.0005957144164204e-02 to 1.0005957144164215e-02 seconds.
Warning: Simulation tolerance relaxed to achieve convergence from 1.0005957144164215e-02 to 1.0005957144164225e-02 seconds.
Warning: Simulation tolerance relaxed to achieve convergence from 1.0005957144164225e-02 to 1.0005957144164235e-02 seconds.
Warning: Simulation tolerance relaxed to achieve convergence from 1.0005957144164235e-02 to 1.0005957144164246e-02 seconds.
Warning: Simulation tolerance relaxed to achieve convergence from 1.0005957144164246e-02 to 1.0005957144164256e-02 seconds.
Warning: Simulation tolerance relaxed to achieve convergence from 1.0005957144164256e-02 to 1.0005957144164267e-02 seconds.
Warning: Simulation tolerance relaxed to achieve convergence from 1.0005957144164267e-02 to 1.0005957144164277e-02 seconds.
Warning: Simulation tolerance relaxed to achieve convergence from 1.0005957144164277e-02 to 1.0005957144164287e-02 seconds.
Warning: Simulation tolerance relaxed to achieve convergence from 1.0005957144164287e-02 to 1.0005957144164298e-02 seconds.
Warning: Simulation tolerance relaxed to achieve convergence from 1.0005957144164298e-02 to 1.0005957144164308e-02 seconds.
Warning: Simulation tolerance relaxed to achieve convergence from 1.0005957144164308e-02 to 1.0005957144164319e-02 seconds.
Warning: Simulation tolerance relaxed to achieve convergence from 1.0005957144164319e-02 to 1.0005957144164329e-02 seconds.
Warning: Simulation tolerance relaxed to achieve convergence from 1.0005957144164329e-02 to 1.0005957144164340e-02 seconds.
Warning: Simulation tolerance relaxed to achieve convergence from 1.0005957144164340e-02 to 1.0005957144164350e-02 seconds.
Warning: Simulation tolerance relaxed to achieve convergence from 1.0005957144164350e-02 to 1.0005957144164360e-02 seconds.
Warning: Simulation tolerance relaxed to achieve convergence from 1.0005957144164360e-02 to 1.0005957144164371e-02 seconds.
Warning: Simulation tolerance relaxed to achieve convergence from 1.0005957144164371e-02 to 1.0005957144164381e-02 seconds.
Warning: Simulation tolerance relaxed to achieve convergence from 1.0005957144164381e-02 to 1.0005957144164392e-02 seconds.
Warning: Simulation tolerance relaxed to achieve convergence from 1.0005957144164392e-02 to 1.0005957144164402e-02 seconds.
Warning: Simulation tolerance relaxed to achieve convergence from 1.0005957144164402e-02 to 1.0005957144164412e-02 seconds.
Warning: Simulation tolerance relaxed to achieve convergence from 1.0005957144164412e-02 to 1.0005957144164423e-02 seconds.
Warning: Simulation tolerance relaxed to achieve convergence from 1.0005957144164423e-02 to 1.0005957144164433e-02 seconds.
Warning: Simulation tolerance relaxed to achieve convergence from 1.0005957144164433e-02 to 1.0005957144164444e-02 seconds.
Warning: Simulation tolerance relaxed to achieve convergence from 1.0005957144164444e-02 to 1.0005957144164454e-02 seconds.
Warning: Simulation tolerance relaxed to achieve convergence from 1.0005957144164454e-02 to 1.0005957144164464e-02 seconds.
Warning: Simulation tolerance relaxed to achieve convergence from 1.0005957144164464e-02 to 1.0005957144164475e-02 seconds.
Warning: Simulation tolerance relaxed to achieve convergence from 1.0005957144164475e-02 to 1.0005957144164485e-02 seconds.
Warning: Simulation tolerance relaxed to achieve convergence from 1.0005957144164485e-02 to 1.0005957144164496e-02 seconds.
Warning: Simulation tolerance relaxed to achieve convergence from 1.0005957144164496e-02 to 1.0005957144164506e-02 seconds.
Warning: Simulation tolerance relaxed to achieve convergence from 1.0005957144164506e-02 to 1.0005957144164516e-02 seconds.
Warning: Simulation tolerance relaxed to achieve convergence from 1.0005957144164516e-02 to 1.0005957144164527e-02 seconds.
Warning: Simulation tolerance relaxed to achieve convergence from 1.0005957144164527e-02 to 1.0005957144164537e-02 seconds.
Warning: Simulation tolerance relaxed to achieve convergence from 1.0005957144164537e-02 to 1.0005957144164548e-02 seconds.
Warning: Simulation tolerance relaxed to achieve convergence from 1.0005957144164548e-02 to 1.0005957144164558e-02 seconds.
Warning: Simulation tolerance relaxed to achieve convergence from 1.0005957144164558e-02 to 1.0005957144164569e-02 seconds.
Warning: Simulation tolerance relaxed to achieve convergence from 1.0005957144164569e-02 to 1.0005957144164579e-02 seconds.
Warning: Simulation tolerance relaxed to achieve convergence from 1.0005957144164579e-02 to 1.0005957144164589e-02 seconds.
Warning: Simulation tolerance relaxed to achieve convergence from 1.0005957144164589e-02 to 1.0005957144164600e-02 seconds.
Warning: Simulation tolerance relaxed to achieve convergence from 1.0005957144164600e-02 to 1.0005957144164610e-02 seconds.
Warning: Simulation tolerance relaxed to achieve convergence from 1.0005957144164610e-02 to 1.0005957144164621e-02 seconds.
Warning: Simulation tolerance relaxed to achieve convergence from 1.0005957144164621e-02 to 1.0005957144164631e-02 seconds.
Warning: Simulation tolerance relaxed to achieve convergence from 1.0005957144164631e-02 to 1.0005957144164641e-02 seconds.
Warning: Simulation tolerance relaxed to achieve convergence from 1.0005957144164641e-02 to 1.0005957144164652e-02 seconds.
Warning: Simulation tolerance relaxed to achieve convergence from 1.0005957144164652e-02 to 1.0005957144164662e-02 seconds.
Warning: Simulation tolerance relaxed to achieve convergence from 1.0005957144164662e-02 to 1.0005957144164673e-02 seconds.
Warning: Simulation tolerance relaxed to achieve convergence from 1.0005957144164673e-02 to 1.0005957144164683e-02 seconds.
Warning: Simulation tolerance relaxed to achieve convergence from 1.0005957144164683e-02 to 1.0005957144164693e-02 seconds.
Warning: Simulation tolerance relaxed to achieve convergence from 1.0005957144164693e-02 to 1.0005957144164704e-02 seconds.
Warning: Simulation tolerance relaxed to achieve convergence from 1.0005957144164704e-02 to 1.0005957144164714e-02 seconds.
Warning: Simulation tolerance relaxed to achieve convergence from 1.0005957144164714e-02 to 1.0005957144164725e-02 seconds.
Warning: Simulation tolerance relaxed to achieve convergence from 1.0005957144164725e-02 to 1.0005957144164735e-02 seconds.
Warning: Simulation tolerance relaxed to achieve convergence from 1.0005957144164735e-02 to 1.0005957144164745e-02 seconds.
Warning: Simulation tolerance relaxed to achieve convergence from 1.0005957144164745e-02 to 1.0005957144164756e-02 seconds.
Warning: Simulation tolerance relaxed to achieve convergence from 1.0005957144164756e-02 to 1.0005957144164766e-02 seconds.
Warning: Simulation tolerance relaxed to achieve convergence from 1.0005957144164766e-02 to 1.0005957144164777e-02 seconds.
Warning: Simulation tolerance relaxed to achieve convergence from 1.0005957144164777e-02 to 1.0005957144164787e-02 seconds.
Warning: Simulation tolerance relaxed to achieve convergence from 1.0005957144164787e-02 to 1.0005957144164798e-02 seconds.
Warning: Simulation tolerance relaxed to achieve convergence from 1.0005957144164798e-02 to 1.0005957144164808e-02 seconds.
Warning: Simulation tolerance relaxed to achieve convergence from 1.0005957144164808e-02 to 1.0005957144164818e-02 seconds.
Warning: Simulation tolerance relaxed to achieve convergence from 1.0005957144164818e-02 to 1.0005957144164829e-02 seconds.
Warning: Simulation tolerance relaxed to achieve convergence from 1.0005957144164829e-02 to 1.0005957144164839e-02 seconds.
Warning: Simulation tolerance relaxed to achieve convergence from 1.0005957144164839e-02 to 1.0005957144164850e-02 seconds.
Warning: Simulation tolerance relaxed to achieve convergence from 1.0005957144164850e-02 to 1.0005957144164860e-02 seconds.
Warning: Simulation tolerance relaxed to achieve convergence from 1.0005957144164860e-02 to 1.0005957144164870e-02 seconds.
Warning: Simulation tolerance relaxed to achieve convergence from 1.0005957144164870e-02 to 1.0005957144164881e-02 seconds.
Warning: Simulation tolerance relaxed to achieve convergence from 1.0005957144164881e-02 to 1.0005957144164891e-02 seconds.
Warning: Simulation tolerance relaxed to achieve convergence from 1.0005957144164891e-02 to 1.0005957144164902e-02 seconds.
Warning: Simulation tolerance relaxed to achieve convergence from 1.0005957144164902e-02 to 1.0005957144164912e-02 seconds.
Warning: Simulation tolerance relaxed to achieve convergence from 1.0005957144164912e-02 to 1.0005957144164922e-02 seconds.
Warning: Simulation tolerance relaxed to achieve convergence from 1.0005957144164922e-02 to 1.0005957144164933e-02 seconds.
Warning: Simulation tolerance relaxed to achieve convergence from 1.0005957144164933e-02 to 1.0005957144164943e-02 seconds.
Warning: Simulation tolerance relaxed to achieve convergence from 1.0005957144164943e-02 to 1.0005957144164954e-02 seconds.
Warning: Simulation tolerance relaxed to achieve convergence from 1.0005957144164954e-02 to 1.0005957144164964e-02 seconds.
Warning: Simulation tolerance relaxed to achieve convergence from 1.0005957144164964e-02 to 1.0005957144164974e-02 seconds.
Warning: Simulation tolerance relaxed to achieve convergence from 1.0005957144164974e-02 to 1.0005957144164985e-02 seconds.
Warning: Simulation tolerance relaxed to achieve convergence from 1.0005957144164985e-02 to 1.0005957144164995e-02 seconds.
Warning: Simulation tolerance relaxed to achieve convergence from 1.0005957144164995e-02 to 1.0005957144165006e-02 seconds.
Warning: Simulation tolerance relaxed to achieve convergence from 1.0005957144165006e-02 to 1.0005957144165016e-02 seconds.
Warning: Simulation tolerance relaxed to achieve convergence from 1.0005957144165016e-02 to 1.0005957144165026e-02 seconds.
Warning: Simulation tolerance relaxed to achieve convergence from 1.0005957144165026e-02 to 1.0005957144165037e-02 seconds.
Warning: Simulation tolerance relaxed to achieve convergence from 1.0005957144165037e-02 to 1.0005957144165047e-02 seconds.
Warning: Simulation tolerance relaxed to achieve convergence from 1.0005957144165047e-02 to 1.0005957144165058e-02 seconds.
Warning: Simulation tolerance relaxed to achieve convergence from 1.0005957144165058e-02 to 1.0005957144165068e-02 seconds.
Warning: Simulation tolerance relaxed to achieve convergence from 1.0005957144165068e-02 to 1.0005957144165079e-02 seconds.
Warning: Simulation tolerance relaxed to achieve convergence from 1.0005957144165079e-02 to 1.0005957144165089e-02 seconds.
Warning: Simulation tolerance relaxed to achieve convergence from 1.0005957144165089e-02 to 1.0005957144165099e-02 seconds.
Warning: Simulation tolerance relaxed to achieve convergence from 1.0005957144165099e-02 to 1.0005957144165110e-02 seconds.
Warning: Simulation tolerance relaxed to achieve convergence from 1.0005957144165110e-02 to 1.0005957144165120e-02 seconds.
Warning: Simulation tolerance relaxed to achieve convergence from 1.0005957144165120e-02 to 1.0005957144165131e-02 seconds.
Warning: Simulation tolerance relaxed to achieve convergence from 1.0005957144165131e-02 to 1.0005957144165141e-02 seconds.
Warning: Simulation tolerance relaxed to achieve convergence from 1.0005957144165141e-02 to 1.0005957144165151e-02 seconds.
Warning: Simulation tolerance relaxed to achieve convergence from 1.0005957144165151e-02 to 1.0005957144165162e-02 seconds.
Warning: Simulation tolerance relaxed to achieve convergence from 1.0005957144165162e-02 to 1.0005957144165172e-02 seconds.
Warning: Simulation tolerance relaxed to achieve convergence from 1.0005957144165172e-02 to 1.0005957144165183e-02 seconds.
Warning: Simulation tolerance relaxed to achieve convergence from 1.0005957144165183e-02 to 1.0005957144165193e-02 seconds.
Warning: Simulation tolerance relaxed to achieve convergence from 1.0005957144165193e-02 to 1.0005957144165203e-02 seconds.
Warning: Simulation tolerance relaxed to achieve convergence from 1.0005957144165203e-02 to 1.0005957144165214e-02 seconds.
Warning: Simulation tolerance relaxed to achieve convergence from 1.0005957144165214e-02 to 1.0005957144165224e-02 seconds.
Warning: Simulation tolerance relaxed to achieve convergence from 1.0005957144165224e-02 to 1.0005957144165235e-02 seconds.
Warning: Simulation tolerance relaxed to achieve convergence from 1.0005957144165235e-02 to 1.0005957144165245e-02 seconds.
Warning: Simulation tolerance relaxed to achieve convergence from 1.0005957144165245e-02 to 1.0005957144165255e-02 seconds.
Warning: Simulation tolerance relaxed to achieve convergence from 1.0005957144165255e-02 to 1.0005957144165266e-02 seconds.
Warning: Simulation tolerance relaxed to achieve convergence from 1.0005957144165266e-02 to 1.0005957144165276e-02 seconds.
Warning: Simulation tolerance relaxed to achieve convergence from 1.0005957144165276e-02 to 1.0005957144165287e-02 seconds.
Warning: Simulation tolerance relaxed to achieve convergence from 1.0005957144165287e-02 to 1.0005957144165297e-02 seconds.
Warning: Simulation tolerance relaxed to achieve convergence from 1.0005957144165297e-02 to 1.0005957144165308e-02 seconds.
Warning: Simulation tolerance relaxed to achieve convergence from 1.0005957144165308e-02 to 1.0005957144165318e-02 seconds.
Warning: Simulation tolerance relaxed to achieve convergence from 1.0005957144165318e-02 to 1.0005957144165328e-02 seconds.
Warning: Simulation tolerance relaxed to achieve convergence from 1.0005957144165328e-02 to 1.0005957144165339e-02 seconds.
Warning: Simulation tolerance relaxed to achieve convergence from 1.0005957144165339e-02 to 1.0005957144165349e-02 seconds.
Warning: Simulation tolerance relaxed to achieve convergence from 1.0005957144165349e-02 to 1.0005957144165360e-02 seconds.
Warning: Simulation tolerance relaxed to achieve convergence from 1.0005957144165360e-02 to 1.0005957144165370e-02 seconds.
Warning: Simulation tolerance relaxed to achieve convergence from 1.0005957144165370e-02 to 1.0005957144165380e-02 seconds.
Warning: Simulation tolerance relaxed to achieve convergence from 1.0005957144165380e-02 to 1.0005957144165391e-02 seconds.
Warning: Simulation tolerance relaxed to achieve convergence from 1.0005957144165391e-02 to 1.0005957144165401e-02 seconds.
Warning: Simulation tolerance relaxed to achieve convergence from 1.0005957144165401e-02 to 1.0005957144165412e-02 seconds.
Warning: Simulation tolerance relaxed to achieve convergence from 1.0005957144165412e-02 to 1.0005957144165422e-02 seconds.
Warning: Simulation tolerance relaxed to achieve convergence from 1.0005957144165422e-02 to 1.0005957144165432e-02 seconds.
Warning: Simulation tolerance relaxed to achieve convergence from 1.0005957144165432e-02 to 1.0005957144165443e-02 seconds.
Warning: Simulation tolerance relaxed to achieve convergence from 1.0005957144165443e-02 to 1.0005957144165453e-02 seconds.
Warning: Simulation tolerance relaxed to achieve convergence from 1.0005957144165453e-02 to 1.0005957144165464e-02 seconds.
Warning: Simulation tolerance relaxed to achieve convergence from 1.0005957144165464e-02 to 1.0005957144165474e-02 seconds.
Warning: Simulation tolerance relaxed to achieve convergence from 1.0005957144165474e-02 to 1.0005957144165484e-02 seconds.
Warning: Simulation tolerance relaxed to achieve convergence from 1.0005957144165484e-02 to 1.0005957144165495e-02 seconds.
Warning: Simulation tolerance relaxed to achieve convergence from 1.0005957144165495e-02 to 1.0005957144165505e-02 seconds.
Warning: Simulation tolerance relaxed to achieve convergence from 1.0005957144165505e-02 to 1.0005957144165516e-02 seconds.
Warning: Simulation tolerance relaxed to achieve convergence from 1.0005957144165516e-02 to 1.0005957144165526e-02 seconds.
Warning: Simulation tolerance relaxed to achieve convergence from 1.0005957144165526e-02 to 1.0005957144165536e-02 seconds.
Warning: Simulation tolerance relaxed to achieve convergence from 1.0005957144165536e-02 to 1.0005957144165547e-02 seconds.
Warning: Simulation tolerance relaxed to achieve convergence from 1.0005957144165547e-02 to 1.0005957144165557e-02 seconds.
Warning: Simulation tolerance relaxed to achieve convergence from 1.0005957144165557e-02 to 1.0005957144165568e-02 seconds.
Warning: Simulation tolerance relaxed to achieve convergence from 1.0005957144165568e-02 to 1.0005957144165578e-02 seconds.
Warning: Simulation tolerance relaxed to achieve convergence from 1.0005957144165578e-02 to 1.0005957144165589e-02 seconds.
Warning: Simulation tolerance relaxed to achieve convergence from 1.0005957144165589e-02 to 1.0005957144165599e-02 seconds.
Warning: Simulation tolerance relaxed to achieve convergence from 1.0005957144165599e-02 to 1.0005957144165609e-02 seconds.
Warning: Simulation tolerance relaxed to achieve convergence from 1.0005957144165609e-02 to 1.0005957144165620e-02 seconds.
Warning: Simulation tolerance relaxed to achieve convergence from 1.0005957144165620e-02 to 1.0005957144165630e-02 seconds.
Warning: Simulation tolerance relaxed to achieve convergence from 1.0005957144165630e-02 to 1.0005957144165641e-02 seconds.
Warning: Simulation tolerance relaxed to achieve convergence from 1.0005957144165641e-02 to 1.0005957144165651e-02 seconds.
Warning: Simulation tolerance relaxed to achieve convergence from 1.0005957144165651e-02 to 1.0005957144165661e-02 seconds.
Warning: Simulation tolerance relaxed to achieve convergence from 1.0005957144165661e-02 to 1.0005957144165672e-02 seconds.
Warning: Simulation tolerance relaxed to achieve convergence from 1.0005957144165672e-02 to 1.0005957144165682e-02 seconds.
Warning: Simulation tolerance relaxed to achieve convergence from 1.0005957144165682e-02 to 1.0005957144165693e-02 seconds.
Warning: Simulation tolerance relaxed to achieve convergence from 1.0005957144165693e-02 to 1.0005957144165703e-02 seconds.
Warning: Simulation tolerance relaxed to achieve convergence from 1.0005957144165703e-02 to 1.0005957144165713e-02 seconds.
Warning: Simulation tolerance relaxed to achieve convergence from 1.0005957144165713e-02 to 1.0005957144165724e-02 seconds.
Warning: Simulation tolerance relaxed to achieve convergence from 1.0005957144165724e-02 to 1.0005957144165734e-02 seconds.
Warning: Simulation tolerance relaxed to achieve convergence from 1.0005957144165734e-02 to 1.0005957144165745e-02 seconds.
Warning: Simulation tolerance relaxed to achieve convergence from 1.0005957144165745e-02 to 1.0005957144165755e-02 seconds.
Warning: Simulation tolerance relaxed to achieve convergence from 1.0005957144165755e-02 to 1.0005957144165765e-02 seconds.
Warning: Simulation tolerance relaxed to achieve convergence from 1.0005957144165765e-02 to 1.0005957144165776e-02 seconds.
Warning: Simulation tolerance relaxed to achieve convergence from 1.0005957144165776e-02 to 1.0005957144165786e-02 seconds.
Warning: Simulation tolerance relaxed to achieve convergence from 1.0005957144165786e-02 to 1.0005957144165797e-02 seconds.
Warning: Simulation tolerance relaxed to achieve convergence from 1.0005957144165797e-02 to 1.0005957144165807e-02 seconds.
Warning: Simulation tolerance relaxed to achieve convergence from 1.0005957144165807e-02 to 1.0005957144165818e-02 seconds.
Warning: Simulation tolerance relaxed to achieve convergence from 1.0005957144165818e-02 to 1.0005957144165828e-02 seconds.
Warning: Simulation tolerance relaxed to achieve convergence from 1.0005957144165828e-02 to 1.0005957144165838e-02 seconds.
Warning: Simulation tolerance relaxed to achieve convergence from 1.0005957144165838e-02 to 1.0005957144165849e-02 seconds.
Warning: Simulation tolerance relaxed to achieve convergence from 1.0005957144165849e-02 to 1.0005957144165859e-02 seconds.
Warning: Simulation tolerance relaxed to achieve convergence from 1.0005957144165859e-02 to 1.0005957144165870e-02 seconds.
Warning: Simulation tolerance relaxed to achieve convergence from 1.0005957144165870e-02 to 1.0005957144165880e-02 seconds.
Warning: Simulation tolerance relaxed to achieve convergence from 1.0005957144165880e-02 to 1.0005957144165890e-02 seconds.
Warning: Simulation tolerance relaxed to achieve convergence from 1.0005957144165890e-02 to 1.0005957144165901e-02 seconds.
Warning: Simulation tolerance relaxed to achieve convergence from 1.0005957144165901e-02 to 1.0005957144165911e-02 seconds.
Warning: Simulation tolerance relaxed to achieve convergence from 1.0005957144165911e-02 to 1.0005957144165922e-02 seconds.
Warning: Simulation tolerance relaxed to achieve convergence from 1.0005957144165922e-02 to 1.0005957144165932e-02 seconds.
Warning: Simulation tolerance relaxed to achieve convergence from 1.0005957144165932e-02 to 1.0005957144165942e-02 seconds.
Warning: Simulation tolerance relaxed to achieve convergence from 1.0005957144165942e-02 to 1.0005957144165953e-02 seconds.
Warning: Simulation tolerance relaxed to achieve convergence from 1.0005957144165953e-02 to 1.0005957144165963e-02 seconds.
Warning: Simulation tolerance relaxed to achieve convergence from 1.0005957144165963e-02 to 1.0005957144165974e-02 seconds.
Warning: Simulation tolerance relaxed to achieve convergence from 1.0005957144165974e-02 to 1.0005957144165984e-02 seconds.
Warning: Simulation tolerance relaxed to achieve convergence from 1.0005957144165984e-02 to 1.0005957144165994e-02 seconds.
Warning: Simulation tolerance relaxed to achieve convergence from 1.0005957144165994e-02 to 1.0005957144166005e-02 seconds.
Warning: Simulation tolerance relaxed to achieve convergence from 1.0005957144166005e-02 to 1.0005957144166015e-02 seconds.
Warning: Simulation tolerance relaxed to achieve convergence from 1.0005957144166015e-02 to 1.0005957144166026e-02 seconds.
Warning: Simulation tolerance relaxed to achieve convergence from 1.0005957144166026e-02 to 1.0005957144166036e-02 seconds.
Warning: Simulation tolerance relaxed to achieve convergence from 1.0005957144166036e-02 to 1.0005957144166047e-02 seconds.
Warning: Simulation tolerance relaxed to achieve convergence from 1.0005957144166047e-02 to 1.0005957144166057e-02 seconds.
Warning: Simulation tolerance relaxed to achieve convergence from 1.0005957144166057e-02 to 1.0005957144166067e-02 seconds.
Warning: Simulation tolerance relaxed to achieve convergence from 1.0005957144166067e-02 to 1.0005957144166078e-02 seconds.
Warning: Simulation tolerance relaxed to achieve convergence from 1.0005957144166078e-02 to 1.0005957144166088e-02 seconds.
Warning: Simulation tolerance relaxed to achieve convergence from 1.0005957144166088e-02 to 1.0005957144166099e-02 seconds.
Warning: Simulation tolerance relaxed to achieve convergence from 1.0005957144166099e-02 to 1.0005957144166109e-02 seconds.
Warning: Simulation tolerance relaxed to achieve convergence from 1.0005957144166109e-02 to 1.0005957144166119e-02 seconds.
Warning: Simulation tolerance relaxed to achieve convergence from 1.0005957144166119e-02 to 1.0005957144166130e-02 seconds.
Warning: Simulation tolerance relaxed to achieve convergence from 1.0005957144166130e-02 to 1.0005957144166140e-02 seconds.
Warning: Simulation tolerance relaxed to achieve convergence from 1.0005957144166140e-02 to 1.0005957144166151e-02 seconds.
Warning: Simulation tolerance relaxed to achieve convergence from 1.0005957144166151e-02 to 1.0005957144166161e-02 seconds.
Warning: Simulation tolerance relaxed to achieve convergence from 1.0005957144166161e-02 to 1.0005957144166171e-02 seconds.
Warning: Simulation tolerance relaxed to achieve convergence from 1.0005957144166171e-02 to 1.0005957144166182e-02 seconds.
Warning: Simulation tolerance relaxed to achieve convergence from 1.0005957144166182e-02 to 1.0005957144166192e-02 seconds.
Warning: Simulation tolerance relaxed to achieve convergence from 1.0005957144166192e-02 to 1.0005957144166203e-02 seconds.
Warning: Simulation tolerance relaxed to achieve convergence from 1.0005957144166203e-02 to 1.0005957144166213e-02 seconds.
Warning: Simulation tolerance relaxed to achieve convergence from 1.0005957144166213e-02 to 1.0005957144166223e-02 seconds.
Warning: Simulation tolerance relaxed to achieve convergence from 1.0005957144166223e-02 to 1.0005957144166234e-02 seconds.
Warning: Simulation tolerance relaxed to achieve convergence from 1.0005957144166234e-02 to 1.0005957144166244e-02 seconds.
Warning: Simulation tolerance relaxed to achieve convergence from 1.0005957144166244e-02 to 1.0005957144166255e-02 seconds.
Warning: Simulation tolerance relaxed to achieve convergence from 1.0005957144166255e-02 to 1.0005957144166265e-02 seconds.
Warning: Simulation tolerance relaxed to achieve convergence from 1.0005957144166265e-02 to 1.0005957144166275e-02 seconds.
Warning: Simulation tolerance relaxed to achieve convergence from 1.0005957144166275e-02 to 1.0005957144166286e-02 seconds.
Warning: Simulation tolerance relaxed to achieve convergence from 1.0005957144166286e-02 to 1.0005957144166296e-02 seconds.
Warning: Simulation tolerance relaxed to achieve convergence from 1.0005957144166296e-02 to 1.0005957144166307e-02 seconds.
Warning: Simulation tolerance relaxed to achieve convergence from 1.0005957144166307e-02 to 1.0005957144166317e-02 seconds.
Warning: Simulation tolerance relaxed to achieve convergence from 1.0005957144166317e-02 to 1.0005957144166328e-02 seconds.
Warning: Simulation tolerance relaxed to achieve convergence from 1.0005957144166328e-02 to 1.0005957144166338e-02 seconds.
Warning: Simulation tolerance relaxed to achieve convergence from 1.0005957144166338e-02 to 1.0005957144166348e-02 seconds.
Warning: Simulation tolerance relaxed to achieve convergence from 1.0005957144166348e-02 to 1.0005957144166359e-02 seconds.
Warning: Simulation tolerance relaxed to achieve convergence from 1.0005957144166359e-02 to 1.0005957144166369e-02 seconds.
Warning: Simulation tolerance relaxed to achieve convergence from 1.0005957144166369e-02 to 1.0005957144166380e-02 seconds.
Warning: Simulation tolerance relaxed to achieve convergence from 1.0005957144166380e-02 to 1.0005957144166390e-02 seconds.
Warning: Simulation tolerance relaxed to achieve convergence from 1.0005957144166390e-02 to 1.0005957144166400e-02 seconds.
Warning: Simulation tolerance relaxed to achieve convergence from 1.0005957144166400e-02 to 1.0005957144166411e-02 seconds.
Warning: Simulation tolerance relaxed to achieve convergence from 1.0005957144166411e-02 to 1.0005957144166421e-02 seconds.
Warning: Simulation tolerance relaxed to achieve convergence from 1.0005957144166421e-02 to 1.0005957144166432e-02 seconds.
Warning: Simulation tolerance relaxed to achieve convergence from 1.0005957144166432e-02 to 1.0005957144166442e-02 seconds.
Warning: Simulation tolerance relaxed to achieve convergence from 1.0005957144166442e-02 to 1.0005957144166452e-02 seconds.
Warning: Simulation tolerance relaxed to achieve convergence from 1.0005957144166452e-02 to 1.0005957144166463e-02 seconds.
Warning: Simulation tolerance relaxed to achieve convergence from 1.0005957144166463e-02 to 1.0005957144166473e-02 seconds.
Warning: Simulation tolerance relaxed to achieve convergence from 1.0005957144166473e-02 to 1.0005957144166484e-02 seconds.
Warning: Simulation tolerance relaxed to achieve convergence from 1.0005957144166484e-02 to 1.0005957144166494e-02 seconds.
Warning: Simulation tolerance relaxed to achieve convergence from 1.0005957144166494e-02 to 1.0005957144166504e-02 seconds.
Warning: Simulation tolerance relaxed to achieve convergence from 1.0005957144166504e-02 to 1.0005957144166515e-02 seconds.
Warning: Simulation tolerance relaxed to achieve convergence from 1.0005957144166515e-02 to 1.0005957144166525e-02 seconds.
Warning: Simulation tolerance relaxed to achieve convergence from 1.0005957144166525e-02 to 1.0005957144166536e-02 seconds.
Warning: Simulation tolerance relaxed to achieve convergence from 1.0005957144166536e-02 to 1.0005957144166546e-02 seconds.
Warning: Simulation tolerance relaxed to achieve convergence from 1.0005957144166546e-02 to 1.0005957144166557e-02 seconds.
Warning: Simulation tolerance relaxed to achieve convergence from 1.0005957144166557e-02 to 1.0005957144166567e-02 seconds.
Warning: Simulation tolerance relaxed to achieve convergence from 1.0005957144166567e-02 to 1.0005957144166577e-02 seconds.
Warning: Simulation tolerance relaxed to achieve convergence from 1.0005957144166577e-02 to 1.0005957144166588e-02 seconds.
Warning: Simulation tolerance relaxed to achieve convergence from 1.0005957144166588e-02 to 1.0005957144166598e-02 seconds.
Warning: Simulation tolerance relaxed to achieve convergence from 1.0005957144166598e-02 to 1.0005957144166609e-02 seconds.
Warning: Simulation tolerance relaxed to achieve convergence from 1.0005957144166609e-02 to 1.0005957144166619e-02 seconds.
Warning: Simulation tolerance relaxed to achieve convergence from 1.0005957144166619e-02 to 1.0005957144166629e-02 seconds.
Warning: Simulation tolerance relaxed to achieve convergence from 1.0005957144166629e-02 to 1.0005957144166640e-02 seconds.
Warning: Simulation tolerance relaxed to achieve convergence from 1.0005957144166640e-02 to 1.0005957144166650e-02 seconds.
Warning: Simulation tolerance relaxed to achieve convergence from 1.0005957144166650e-02 to 1.0005957144166661e-02 seconds.
Warning: Simulation tolerance relaxed to achieve convergence from 1.0005957144166661e-02 to 1.0005957144166671e-02 seconds.
Warning: Simulation tolerance relaxed to achieve convergence from 1.0005957144166671e-02 to 1.0005957144166681e-02 seconds.
Warning: Simulation tolerance relaxed to achieve convergence from 1.0005957144166681e-02 to 1.0005957144166692e-02 seconds.
Warning: Simulation tolerance relaxed to achieve convergence from 1.0005957144166692e-02 to 1.0005957144166702e-02 seconds.
Warning: Simulation tolerance relaxed to achieve convergence from 1.0005957144166702e-02 to 1.0005957144166713e-02 seconds.
Warning: Simulation tolerance relaxed to achieve convergence from 1.0005957144166713e-02 to 1.0005957144166723e-02 seconds.
Warning: Simulation tolerance relaxed to achieve convergence from 1.0005957144166723e-02 to 1.0005957144166733e-02 seconds.
Warning: Simulation tolerance relaxed to achieve convergence from 1.0005957144166733e-02 to 1.0005957144166744e-02 seconds.
Warning: Simulation tolerance relaxed to achieve convergence from 1.0005957144166744e-02 to 1.0005957144166754e-02 seconds.
Warning: Simulation tolerance relaxed to achieve convergence from 1.0005957144166754e-02 to 1.0005957144166765e-02 seconds.
Warning: Simulation tolerance relaxed to achieve convergence from 1.0005957144166765e-02 to 1.0005957144166775e-02 seconds.
Warning: Simulation tolerance relaxed to achieve convergence from 1.0005957144166775e-02 to 1.0005957144166785e-02 seconds.
Warning: Simulation tolerance relaxed to achieve convergence from 1.0005957144166785e-02 to 1.0005957144166796e-02 seconds.
Warning: Simulation tolerance relaxed to achieve convergence from 1.0005957144166796e-02 to 1.0005957144166806e-02 seconds.
Warning: Simulation tolerance relaxed to achieve convergence from 1.0005957144166806e-02 to 1.0005957144166817e-02 seconds.
Warning: Simulation tolerance relaxed to achieve convergence from 1.0005957144166817e-02 to 1.0005957144166827e-02 seconds.
Warning: Simulation tolerance relaxed to achieve convergence from 1.0005957144166827e-02 to 1.0005957144166838e-02 seconds.
Warning: Simulation tolerance relaxed to achieve convergence from 1.0005957144166838e-02 to 1.0005957144166848e-02 seconds.
Warning: Simulation tolerance relaxed to achieve convergence from 1.0005957144166848e-02 to 1.0005957144166858e-02 seconds.
Warning: Simulation tolerance relaxed to achieve convergence from 1.0005957144166858e-02 to 1.0005957144166869e-02 seconds.
Warning: Simulation tolerance relaxed to achieve convergence from 1.0005957144166869e-02 to 1.0005957144166879e-02 seconds.
Warning: Simulation tolerance relaxed to achieve convergence from 1.0005957144166879e-02 to 1.0005957144166890e-02 seconds.
Warning: Simulation tolerance relaxed to achieve convergence from 1.0005957144166890e-02 to 1.0005957144166900e-02 seconds.
Warning: Simulation tolerance relaxed to achieve convergence from 1.0005957144166900e-02 to 1.0005957144166910e-02 seconds.
Warning: Simulation tolerance relaxed to achieve convergence from 1.0005957144166910e-02 to 1.0005957144166921e-02 seconds.
Warning: Simulation tolerance relaxed to achieve convergence from 1.0005957144166921e-02 to 1.0005957144166931e-02 seconds.
Warning: Simulation tolerance relaxed to achieve convergence from 1.0005957144166931e-02 to 1.0005957144166942e-02 seconds.
Warning: Simulation tolerance relaxed to achieve convergence from 1.0005957144166942e-02 to 1.0005957144166952e-02 seconds.
Warning: Simulation tolerance relaxed to achieve convergence from 1.0005957144166952e-02 to 1.0005957144166962e-02 seconds.
Warning: Simulation tolerance relaxed to achieve convergence from 1.0005957144166962e-02 to 1.0005957144166973e-02 seconds.
Warning: Simulation tolerance relaxed to achieve convergence from 1.0005957144166973e-02 to 1.0005957144166983e-02 seconds.
Warning: Simulation tolerance relaxed to achieve convergence from 1.0005957144166983e-02 to 1.0005957144166994e-02 seconds.
Warning: Simulation tolerance relaxed to achieve convergence from 1.0005957144166994e-02 to 1.0005957144167004e-02 seconds.
Warning: Simulation tolerance relaxed to achieve convergence from 1.0005957144167004e-02 to 1.0005957144167014e-02 seconds.
Warning: Simulation tolerance relaxed to achieve convergence from 1.0005957144167014e-02 to 1.0005957144167025e-02 seconds.
Warning: Simulation tolerance relaxed to achieve convergence from 1.0005957144167025e-02 to 1.0005957144167035e-02 seconds.
Warning: Simulation tolerance relaxed to achieve convergence from 1.0005957144167035e-02 to 1.0005957144167046e-02 seconds.
Warning: Simulation tolerance relaxed to achieve convergence from 1.0005957144167046e-02 to 1.0005957144167056e-02 seconds.
Warning: Simulation tolerance relaxed to achieve convergence from 1.0005957144167056e-02 to 1.0005957144167067e-02 seconds.
Warning: Simulation tolerance relaxed to achieve convergence from 1.0005957144167067e-02 to 1.0005957144167077e-02 seconds.
Warning: Simulation tolerance relaxed to achieve convergence from 1.0005957144167077e-02 to 1.0005957144167087e-02 seconds.
Warning: Simulation tolerance relaxed to achieve convergence from 1.0005957144167087e-02 to 1.0005957144167098e-02 seconds.
Warning: Simulation tolerance relaxed to achieve convergence from 1.0005957144167098e-02 to 1.0005957144167108e-02 seconds.
Warning: Simulation tolerance relaxed to achieve convergence from 1.0005957144167108e-02 to 1.0005957144167119e-02 seconds.
Warning: Simulation tolerance relaxed to achieve convergence from 1.0005957144167119e-02 to 1.0005957144167129e-02 seconds.
Warning: Simulation tolerance relaxed to achieve convergence from 1.0005957144167129e-02 to 1.0005957144167139e-02 seconds.
Warning: Simulation tolerance relaxed to achieve convergence from 1.0005957144167139e-02 to 1.0005957144167150e-02 seconds.
Warning: Simulation tolerance relaxed to achieve convergence from 1.0005957144167150e-02 to 1.0005957144167160e-02 seconds.
Warning: Simulation tolerance relaxed to achieve convergence from 1.0005957144167160e-02 to 1.0005957144167171e-02 seconds.
Warning: Simulation tolerance relaxed to achieve convergence from 1.0005957144167171e-02 to 1.0005957144167181e-02 seconds.
Warning: Simulation tolerance relaxed to achieve convergence from 1.0005957144167181e-02 to 1.0005957144167191e-02 seconds.
Warning: Simulation tolerance relaxed to achieve convergence from 1.0005957144167191e-02 to 1.0005957144167202e-02 seconds.
Warning: Simulation tolerance relaxed to achieve convergence from 1.0005957144167202e-02 to 1.0005957144167212e-02 seconds.
Warning: Simulation tolerance relaxed to achieve convergence from 1.0005957144167212e-02 to 1.0005957144167223e-02 seconds.
Warning: Simulation tolerance relaxed to achieve convergence from 1.0005957144167223e-02 to 1.0005957144167233e-02 seconds.
Warning: Simulation tolerance relaxed to achieve convergence from 1.0005957144167233e-02 to 1.0005957144167243e-02 seconds.
Warning: Simulation tolerance relaxed to achieve convergence from 1.0005957144167243e-02 to 1.0005957144167254e-02 seconds.
Warning: Simulation tolerance relaxed to achieve convergence from 1.0005957144167254e-02 to 1.0005957144167264e-02 seconds.
Warning: Simulation tolerance relaxed to achieve convergence from 1.0005957144167264e-02 to 1.0005957144167275e-02 seconds.
Warning: Simulation tolerance relaxed to achieve convergence from 1.0005957144167275e-02 to 1.0005957144167285e-02 seconds.
Warning: Simulation tolerance relaxed to achieve convergence from 1.0005957144167285e-02 to 1.0005957144167296e-02 seconds.
Warning: Simulation tolerance relaxed to achieve convergence from 1.0005957144167296e-02 to 1.0005957144167306e-02 seconds.
Warning: Simulation tolerance relaxed to achieve convergence from 1.0005957144167306e-02 to 1.0005957144167316e-02 seconds.
Warning: Simulation tolerance relaxed to achieve convergence from 1.0005957144167316e-02 to 1.0005957144167327e-02 seconds.
Warning: Simulation tolerance relaxed to achieve convergence from 1.0005957144167327e-02 to 1.0005957144167337e-02 seconds.
Warning: Simulation tolerance relaxed to achieve convergence from 1.0005957144167337e-02 to 1.0005957144167348e-02 seconds.
Warning: Simulation tolerance relaxed to achieve convergence from 1.0005957144167348e-02 to 1.0005957144167358e-02 seconds.
Warning: Simulation tolerance relaxed to achieve convergence from 1.0005957144167358e-02 to 1.0005957144167368e-02 seconds.
Warning: Simulation tolerance relaxed to achieve convergence from 1.0005957144167368e-02 to 1.0005957144167379e-02 seconds.
Warning: Simulation tolerance relaxed to achieve convergence from 1.0005957144167379e-02 to 1.0005957144167389e-02 seconds.
Warning: Simulation tolerance relaxed to achieve convergence from 1.0005957144167389e-02 to 1.0005957144167400e-02 seconds.
Warning: Simulation tolerance relaxed to achieve convergence from 1.0005957144167400e-02 to 1.0005957144167410e-02 seconds.
Warning: Simulation tolerance relaxed to achieve convergence from 1.0005957144167410e-02 to 1.0005957144167420e-02 seconds.
Warning: Simulation tolerance relaxed to achieve convergence from 1.0005957144167420e-02 to 1.0005957144167431e-02 seconds.
Warning: Simulation tolerance relaxed to achieve convergence from 1.0005957144167431e-02 to 1.0005957144167441e-02 seconds.
Warning: Simulation tolerance relaxed to achieve convergence from 1.0005957144167441e-02 to 1.0005957144167452e-02 seconds.
Warning: Simulation tolerance relaxed to achieve convergence from 1.0005957144167452e-02 to 1.0005957144167462e-02 seconds.
Warning: Simulation tolerance relaxed to achieve convergence from 1.0005957144167462e-02 to 1.0005957144167472e-02 seconds.
Warning: Simulation tolerance relaxed to achieve convergence from 1.0005957144167472e-02 to 1.0005957144167483e-02 seconds.
Warning: Simulation tolerance relaxed to achieve convergence from 1.0005957144167483e-02 to 1.0005957144167493e-02 seconds.
Warning: Simulation tolerance relaxed to achieve convergence from 1.0005957144167493e-02 to 1.0005957144167504e-02 seconds.
Warning: Simulation tolerance relaxed to achieve convergence from 1.0005957144167504e-02 to 1.0005957144167514e-02 seconds.
Warning: Simulation tolerance relaxed to achieve convergence from 1.0005957144167514e-02 to 1.0005957144167524e-02 seconds.
Warning: Simulation tolerance relaxed to achieve convergence from 1.0005957144167524e-02 to 1.0005957144167535e-02 seconds.
Warning: Simulation tolerance relaxed to achieve convergence from 1.0005957144167535e-02 to 1.0005957144167545e-02 seconds.
Warning: Simulation tolerance relaxed to achieve convergence from 1.0005957144167545e-02 to 1.0005957144167556e-02 seconds.
Warning: Simulation tolerance relaxed to achieve convergence from 1.0005957144167556e-02 to 1.0005957144167566e-02 seconds.
Warning: Simulation tolerance relaxed to achieve convergence from 1.0005957144167566e-02 to 1.0005957144167577e-02 seconds.
Warning: Simulation tolerance relaxed to achieve convergence from 1.0005957144167577e-02 to 1.0005957144167587e-02 seconds.
Warning: Simulation tolerance relaxed to achieve convergence from 1.0005957144167587e-02 to 1.0005957144167597e-02 seconds.
Warning: Simulation tolerance relaxed to achieve convergence from 1.0005957144167597e-02 to 1.0005957144167608e-02 seconds.
Warning: Simulation tolerance relaxed to achieve convergence from 1.0005957144167608e-02 to 1.0005957144167618e-02 seconds.
Warning: Simulation tolerance relaxed to achieve convergence from 1.0005957144167618e-02 to 1.0005957144167629e-02 seconds.
Warning: Simulation tolerance relaxed to achieve convergence from 1.0005957144167629e-02 to 1.0005957144167639e-02 seconds.
Warning: Simulation tolerance relaxed to achieve convergence from 1.0005957144167639e-02 to 1.0005957144167649e-02 seconds.
Warning: Simulation tolerance relaxed to achieve convergence from 1.0005957144167649e-02 to 1.0005957144167660e-02 seconds.
Warning: Simulation tolerance relaxed to achieve convergence from 1.0005957144167660e-02 to 1.0005957144167670e-02 seconds.
Warning: Simulation tolerance relaxed to achieve convergence from 1.0005957144167670e-02 to 1.0005957144167681e-02 seconds.
Warning: Simulation tolerance relaxed to achieve convergence from 1.0005957144167681e-02 to 1.0005957144167691e-02 seconds.
Warning: Simulation tolerance relaxed to achieve convergence from 1.0005957144167691e-02 to 1.0005957144167701e-02 seconds.
Warning: Simulation tolerance relaxed to achieve convergence from 1.0005957144167701e-02 to 1.0005957144167712e-02 seconds.
Warning: Simulation tolerance relaxed to achieve convergence from 1.0005957144167712e-02 to 1.0005957144167722e-02 seconds.
Warning: Simulation tolerance relaxed to achieve convergence from 1.0005957144167722e-02 to 1.0005957144167733e-02 seconds.
Warning: Simulation tolerance relaxed to achieve convergence from 1.0005957144167733e-02 to 1.0005957144167743e-02 seconds.
Warning: Simulation tolerance relaxed to achieve convergence from 1.0005957144167743e-02 to 1.0005957144167753e-02 seconds.
Warning: Simulation tolerance relaxed to achieve convergence from 1.0005957144167753e-02 to 1.0005957144167764e-02 seconds.
Warning: Simulation tolerance relaxed to achieve convergence from 1.0005957144167764e-02 to 1.0005957144167774e-02 seconds.
Warning: Simulation tolerance relaxed to achieve convergence from 1.0005957144167774e-02 to 1.0005957144167785e-02 seconds.
Warning: Simulation tolerance relaxed to achieve convergence from 1.0005957144167785e-02 to 1.0005957144167795e-02 seconds.
Warning: Simulation tolerance relaxed to achieve convergence from 1.0005957144167795e-02 to 1.0005957144167806e-02 seconds.
Warning: Simulation tolerance relaxed to achieve convergence from 1.0005957144167806e-02 to 1.0005957144167816e-02 seconds.
Warning: Simulation tolerance relaxed to achieve convergence from 1.0005957144167816e-02 to 1.0005957144167826e-02 seconds.
Warning: Simulation tolerance relaxed to achieve convergence from 1.0005957144167826e-02 to 1.0005957144167837e-02 seconds.
Warning: Simulation tolerance relaxed to achieve convergence from 1.0005957144167837e-02 to 1.0005957144167847e-02 seconds.
Warning: Simulation tolerance relaxed to achieve convergence from 1.0005957144167847e-02 to 1.0005957144167858e-02 seconds.
Warning: Simulation tolerance relaxed to achieve convergence from 1.0005957144167858e-02 to 1.0005957144167868e-02 seconds.
Warning: Simulation tolerance relaxed to achieve convergence from 1.0005957144167868e-02 to 1.0005957144167878e-02 seconds.
Warning: Simulation tolerance relaxed to achieve convergence from 1.0005957144167878e-02 to 1.0005957144167889e-02 seconds.
Warning: Simulation tolerance relaxed to achieve convergence from 1.0005957144167889e-02 to 1.0005957144167899e-02 seconds.
Warning: Simulation tolerance relaxed to achieve convergence from 1.0005957144167899e-02 to 1.0005957144167910e-02 seconds.
Warning: Simulation tolerance relaxed to achieve convergence from 1.0005957144167910e-02 to 1.0005957144167920e-02 seconds.
Warning: Simulation tolerance relaxed to achieve convergence from 1.0005957144167920e-02 to 1.0005957144167930e-02 seconds.
Warning: Simulation tolerance relaxed to achieve convergence from 1.0005957144167930e-02 to 1.0005957144167941e-02 seconds.
Warning: Simulation tolerance relaxed to achieve convergence from 1.0005957144167941e-02 to 1.0005957144167951e-02 seconds.
Warning: Simulation tolerance relaxed to achieve convergence from 1.0005957144167951e-02 to 1.0005957144167962e-02 seconds.
Warning: Simulation tolerance relaxed to achieve convergence from 1.0005957144167962e-02 to 1.0005957144167972e-02 seconds.
Warning: Simulation tolerance relaxed to achieve convergence from 1.0005957144167972e-02 to 1.0005957144167982e-02 seconds.
Warning: Simulation tolerance relaxed to achieve convergence from 1.0005957144167982e-02 to 1.0005957144167993e-02 seconds.
Warning: Simulation tolerance relaxed to achieve convergence from 1.0005957144167993e-02 to 1.0005957144168003e-02 seconds.
Warning: Simulation tolerance relaxed to achieve convergence from 1.0005957144168003e-02 to 1.0005957144168014e-02 seconds.
Warning: Simulation tolerance relaxed to achieve convergence from 1.0005957144168014e-02 to 1.0005957144168024e-02 seconds.
Warning: Simulation tolerance relaxed to achieve convergence from 1.0005957144168024e-02 to 1.0005957144168035e-02 seconds.
Warning: Simulation tolerance relaxed to achieve convergence from 1.0005957144168035e-02 to 1.0005957144168045e-02 seconds.
Warning: Simulation tolerance relaxed to achieve convergence from 1.0005957144168045e-02 to 1.0005957144168055e-02 seconds.
Warning: Simulation tolerance relaxed to achieve convergence from 1.0005957144168055e-02 to 1.0005957144168066e-02 seconds.
Warning: Simulation tolerance relaxed to achieve convergence from 1.0005957144168066e-02 to 1.0005957144168076e-02 seconds.
Warning: Simulation tolerance relaxed to achieve convergence from 1.0005957144168076e-02 to 1.0005957144168087e-02 seconds.
Warning: Simulation tolerance relaxed to achieve convergence from 1.0005957144168087e-02 to 1.0005957144168097e-02 seconds.
Warning: Simulation tolerance relaxed to achieve convergence from 1.0005957144168097e-02 to 1.0005957144168107e-02 seconds.
Warning: Simulation tolerance relaxed to achieve convergence from 1.0005957144168107e-02 to 1.0005957144168118e-02 seconds.
Warning: Simulation tolerance relaxed to achieve convergence from 1.0005957144168118e-02 to 1.0005957144168128e-02 seconds.
Warning: Simulation tolerance relaxed to achieve convergence from 1.0005957144168128e-02 to 1.0005957144168139e-02 seconds.
Warning: Simulation tolerance relaxed to achieve convergence from 1.0005957144168139e-02 to 1.0005957144168149e-02 seconds.
Warning: Simulation tolerance relaxed to achieve convergence from 1.0005957144168149e-02 to 1.0005957144168159e-02 seconds.
Warning: Simulation tolerance relaxed to achieve convergence from 1.0005957144168159e-02 to 1.0005957144168170e-02 seconds.
Warning: Simulation tolerance relaxed to achieve convergence from 1.0005957144168170e-02 to 1.0005957144168180e-02 seconds.
Warning: Simulation tolerance relaxed to achieve convergence from 1.0005957144168180e-02 to 1.0005957144168191e-02 seconds.
Warning: Simulation tolerance relaxed to achieve convergence from 1.0005957144168191e-02 to 1.0005957144168201e-02 seconds.
Warning: Simulation tolerance relaxed to achieve convergence from 1.0005957144168201e-02 to 1.0005957144168211e-02 seconds.
Warning: Simulation tolerance relaxed to achieve convergence from 1.0005957144168211e-02 to 1.0005957144168222e-02 seconds.
Warning: Simulation tolerance relaxed to achieve convergence from 1.0005957144168222e-02 to 1.0005957144168232e-02 seconds.
Warning: Simulation tolerance relaxed to achieve convergence from 1.0005957144168232e-02 to 1.0005957144168243e-02 seconds.
Warning: Simulation tolerance relaxed to achieve convergence from 1.0005957144168243e-02 to 1.0005957144168253e-02 seconds.
Warning: Simulation tolerance relaxed to achieve convergence from 1.0005957144168253e-02 to 1.0005957144168263e-02 seconds.
Warning: Simulation tolerance relaxed to achieve convergence from 1.0005957144168263e-02 to 1.0005957144168274e-02 seconds.
Warning: Simulation tolerance relaxed to achieve convergence from 1.0005957144168274e-02 to 1.0005957144168284e-02 seconds.
Warning: Simulation tolerance relaxed to achieve convergence from 1.0005957144168284e-02 to 1.0005957144168295e-02 seconds.
Warning: Simulation tolerance relaxed to achieve convergence from 1.0005957144168295e-02 to 1.0005957144168305e-02 seconds.
Warning: Simulation tolerance relaxed to achieve convergence from 1.0005957144168305e-02 to 1.0005957144168316e-02 seconds.
Warning: Simulation tolerance relaxed to achieve convergence from 1.0005957144168316e-02 to 1.0005957144168326e-02 seconds.
Warning: Simulation tolerance relaxed to achieve convergence from 1.0005957144168326e-02 to 1.0005957144168336e-02 seconds.
Warning: Simulation tolerance relaxed to achieve convergence from 1.0005957144168336e-02 to 1.0005957144168347e-02 seconds.
Warning: Simulation tolerance relaxed to achieve convergence from 1.0005957144168347e-02 to 1.0005957144168357e-02 seconds.
Warning: Simulation tolerance relaxed to achieve convergence from 1.0005957144168357e-02 to 1.0005957144168368e-02 seconds.
Warning: Simulation tolerance relaxed to achieve convergence from 1.0005957144168368e-02 to 1.0005957144168378e-02 seconds.
Warning: Simulation tolerance relaxed to achieve convergence from 1.0005957144168378e-02 to 1.0005957144168388e-02 seconds.
Warning: Simulation tolerance relaxed to achieve convergence from 1.0005957144168388e-02 to 1.0005957144168399e-02 seconds.
Warning: Simulation tolerance relaxed to achieve convergence from 1.0005957144168399e-02 to 1.0005957144168409e-02 seconds.
Warning: Simulation tolerance relaxed to achieve convergence from 1.0005957144168409e-02 to 1.0005957144168420e-02 seconds.
Warning: Simulation tolerance relaxed to achieve convergence from 1.0005957144168420e-02 to 1.0005957144168430e-02 seconds.
Warning: Simulation tolerance relaxed to achieve convergence from 1.0005957144168430e-02 to 1.0005957144168440e-02 seconds.
Warning: Simulation tolerance relaxed to achieve convergence from 1.0005957144168440e-02 to 1.0005957144168451e-02 seconds.
Warning: Simulation tolerance relaxed to achieve convergence from 1.0005957144168451e-02 to 1.0005957144168461e-02 seconds.
Warning: Simulation tolerance relaxed to achieve convergence from 1.0005957144168461e-02 to 1.0005957144168472e-02 seconds.
Warning: Simulation tolerance relaxed to achieve convergence from 1.0005957144168472e-02 to 1.0005957144168482e-02 seconds.
Warning: Simulation tolerance relaxed to achieve convergence from 1.0005957144168482e-02 to 1.0005957144168492e-02 seconds.
Warning: Simulation tolerance relaxed to achieve convergence from 1.0005957144168492e-02 to 1.0005957144168503e-02 seconds.
Warning: Simulation tolerance relaxed to achieve convergence from 1.0005957144168503e-02 to 1.0005957144168513e-02 seconds.
Warning: Simulation tolerance relaxed to achieve convergence from 1.0005957144168513e-02 to 1.0005957144168524e-02 seconds.
Warning: Simulation tolerance relaxed to achieve convergence from 1.0005957144168524e-02 to 1.0005957144168534e-02 seconds.
Warning: Simulation tolerance relaxed to achieve convergence from 1.0005957144168534e-02 to 1.0005957144168545e-02 seconds.
Warning: Simulation tolerance relaxed to achieve convergence from 1.0005957144168545e-02 to 1.0005957144168555e-02 seconds.
Warning: Simulation tolerance relaxed to achieve convergence from 1.0005957144168555e-02 to 1.0005957144168565e-02 seconds.
Warning: Simulation tolerance relaxed to achieve convergence from 1.0005957144168565e-02 to 1.0005957144168576e-02 seconds.
Warning: Simulation tolerance relaxed to achieve convergence from 1.0005957144168576e-02 to 1.0005957144168586e-02 seconds.
Warning: Simulation tolerance relaxed to achieve convergence from 1.0005957144168586e-02 to 1.0005957144168597e-02 seconds.
Warning: Simulation tolerance relaxed to achieve convergence from 1.0005957144168597e-02 to 1.0005957144168607e-02 seconds.
Warning: Simulation tolerance relaxed to achieve convergence from 1.0005957144168607e-02 to 1.0005957144168617e-02 seconds.
Warning: Simulation tolerance relaxed to achieve convergence from 1.0005957144168617e-02 to 1.0005957144168628e-02 seconds.
Warning: Simulation tolerance relaxed to achieve convergence from 1.0005957144168628e-02 to 1.0005957144168638e-02 seconds.
Warning: Simulation tolerance relaxed to achieve convergence from 1.0005957144168638e-02 to 1.0005957144168649e-02 seconds.
Warning: Simulation tolerance relaxed to achieve convergence from 1.0005957144168649e-02 to 1.0005957144168659e-02 seconds.
Warning: Simulation tolerance relaxed to achieve convergence from 1.0005957144168659e-02 to 1.0005957144168669e-02 seconds.
Warning: Simulation tolerance relaxed to achieve convergence from 1.0005957144168669e-02 to 1.0005957144168680e-02 seconds.
Warning: Simulation tolerance relaxed to achieve convergence from 1.0005957144168680e-02 to 1.0005957144168690e-02 seconds.
Warning: Simulation tolerance relaxed to achieve convergence from 1.0005957144168690e-02 to 1.0005957144168701e-02 seconds.
Warning: Simulation tolerance relaxed to achieve convergence from 1.0005957144168701e-02 to 1.0005957144168711e-02 seconds.
Warning: Simulation tolerance relaxed to achieve convergence from 1.0005957144168711e-02 to 1.0005957144168721e-02 seconds.
Warning: Simulation tolerance relaxed to achieve convergence from 1.0005957144168721e-02 to 1.0005957144168732e-02 seconds.
Warning: Simulation tolerance relaxed to achieve convergence from 1.0005957144168732e-02 to 1.0005957144168742e-02 seconds.
Warning: Simulation tolerance relaxed to achieve convergence from 1.0005957144168742e-02 to 1.0005957144168753e-02 seconds.
Warning: Simulation tolerance relaxed to achieve convergence from 1.0005957144168753e-02 to 1.0005957144168763e-02 seconds.
Warning: Simulation tolerance relaxed to achieve convergence from 1.0005957144168763e-02 to 1.0005957144168773e-02 seconds.
Warning: Simulation tolerance relaxed to achieve convergence from 1.0005957144168773e-02 to 1.0005957144168784e-02 seconds.
Warning: Simulation tolerance relaxed to achieve convergence from 1.0005957144168784e-02 to 1.0005957144168794e-02 seconds.
Warning: Simulation tolerance relaxed to achieve convergence from 1.0005957144168794e-02 to 1.0005957144168805e-02 seconds.
Warning: Simulation tolerance relaxed to achieve convergence from 1.0005957144168805e-02 to 1.0005957144168815e-02 seconds.
Warning: Simulation tolerance relaxed to achieve convergence from 1.0005957144168815e-02 to 1.0005957144168826e-02 seconds.
Warning: Simulation tolerance relaxed to achieve convergence from 1.0005957144168826e-02 to 1.0005957144168836e-02 seconds.
Warning: Simulation tolerance relaxed to achieve convergence from 1.0005957144168836e-02 to 1.0005957144168846e-02 seconds.
Warning: Simulation tolerance relaxed to achieve convergence from 1.0005957144168846e-02 to 1.0005957144168857e-02 seconds.
Warning: Simulation tolerance relaxed to achieve convergence from 1.0005957144168857e-02 to 1.0005957144168867e-02 seconds.
Warning: Simulation tolerance relaxed to achieve convergence from 1.0005957144168867e-02 to 1.0005957144168878e-02 seconds.
Warning: Simulation tolerance relaxed to achieve convergence from 1.0005957144168878e-02 to 1.0005957144168888e-02 seconds.
Warning: Simulation tolerance relaxed to achieve convergence from 1.0005957144168888e-02 to 1.0005957144168898e-02 seconds.
Warning: Simulation tolerance relaxed to achieve convergence from 1.0005957144168898e-02 to 1.0005957144168909e-02 seconds.
Warning: Simulation tolerance relaxed to achieve convergence from 1.0005957144168909e-02 to 1.0005957144168919e-02 seconds.
Warning: Simulation tolerance relaxed to achieve convergence from 1.0005957144168919e-02 to 1.0005957144168930e-02 seconds.
Warning: Simulation tolerance relaxed to achieve convergence from 1.0005957144168930e-02 to 1.0005957144168940e-02 seconds.
Warning: Simulation tolerance relaxed to achieve convergence from 1.0005957144168940e-02 to 1.0005957144168950e-02 seconds.
Warning: Simulation tolerance relaxed to achieve convergence from 1.0005957144168950e-02 to 1.0005957144168961e-02 seconds.
Warning: Simulation tolerance relaxed to achieve convergence from 1.0005957144168961e-02 to 1.0005957144168971e-02 seconds.
Warning: Simulation tolerance relaxed to achieve convergence from 1.0005957144168971e-02 to 1.0005957144168982e-02 seconds.
Warning: Simulation tolerance relaxed to achieve convergence from 1.0005957144168982e-02 to 1.0005957144168992e-02 seconds.
Warning: Simulation tolerance relaxed to achieve convergence from 1.0005957144168992e-02 to 1.0005957144169002e-02 seconds.
Warning: Simulation tolerance relaxed to achieve convergence from 1.0005957144169002e-02 to 1.0005957144169013e-02 seconds.
Warning: Simulation tolerance relaxed to achieve convergence from 1.0005957144169013e-02 to 1.0005957144169023e-02 seconds.
Warning: Simulation tolerance relaxed to achieve convergence from 1.0005957144169023e-02 to 1.0005957144169034e-02 seconds.
[...]
Warning: Simulation tolerance relaxed to achieve convergence from 1.0005957144221377e-02 to 1.0005957144221388e-02 seconds.
Warning: Simulation tolerance relaxed to achieve convergence from 1.0005957144221388e-02 to 1.0005957144221398e-02 seconds.
Warning: Simulation tolerance relaxed to achieve convergence from 1.0005957144221398e-02 to 1.0005957144221408e-02 seconds.
Warning: Simulation tolerance relaxed to achieve convergence from 1.0005957144221408e-02 to 1.0005957144221419e-02 seconds.
Warning: Simulation tolerance relaxed to achieve convergence from 1.0005957144221419e-02 to 1.0005957144221429e-02 seconds.
Warning: Simulation tolerance relaxed to achieve convergence from 1.0005957144221429e-02 to 1.0005957144221440e-02 seconds.
Warning: Simulation tolerance relaxed to achieve convergence from 1.0005957144221440e-02 to 1.0005957144221450e-02 seconds.
Warning: Simulation tolerance relaxed to achieve convergence from 1.0005957144221450e-02 to 1.0005957144221461e-02 seconds.
Warning: Simulation tolerance relaxed to achieve convergence from 1.0005957144221461e-02 to 1.0005957144221471e-02 seconds.
Warning: Simulation tolerance relaxed to achieve convergence from 1.0005957144221471e-02 to 1.0005957144221481e-02 seconds.
Warning: Simulation tolerance relaxed to achieve convergence from 1.0005957144221481e-02 to 1.0005957144221492e-02 seconds.
Warning: Simulation tolerance relaxed to achieve convergence from 1.0005957144221492e-02 to 1.0005957144221502e-02 seconds.
Warning: Simulation tolerance relaxed to achieve convergence from 1.0005957144221502e-02 to 1.0005957144221513e-02 seconds.
Warning: Simulation tolerance relaxed to achieve convergence from 1.0005957144221513e-02 to 1.0005957144221523e-02 seconds.
Warning: Simulation tolerance relaxed to achieve convergence from 1.0005957144221523e-02 to 1.0005957144221533e-02 seconds.
Warning: Simulation tolerance relaxed to achieve convergence from 1.0005957144221533e-02 to 1.0005957144221544e-02 seconds.
Warning: Simulation tolerance relaxed to achieve convergence from 1.0005957144221544e-02 to 1.0005957144221554e-02 seconds.
Warning: Simulation tolerance relaxed to achieve convergence from 1.0005957144221554e-02 to 1.0005957144221565e-02 seconds.
Warning: Simulation tolerance relaxed to achieve convergence from 1.0005957144221565e-02 to 1.0005957144221575e-02 seconds.
Warning: Simulation tolerance relaxed to achieve convergence from 1.0005957144221575e-02 to 1.0005957144221585e-02 seconds.
Warning: Simulation tolerance relaxed to achieve convergence from 1.0005957144221585e-02 to 1.0005957144221596e-02 seconds.
Warning: Simulation tolerance relaxed to achieve convergence from 1.0005957144221596e-02 to 1.0005957144221606e-02 seconds.
Warning: Simulation tolerance relaxed to achieve convergence from 1.0005957144221606e-02 to 1.0005957144221617e-02 seconds.
Warning: Simulation tolerance relaxed to achieve convergence from 1.0005957144221617e-02 to 1.0005957144221627e-02 seconds.
Warning: Simulation tolerance relaxed to achieve convergence from 1.0005957144221627e-02 to 1.0005957144221637e-02 seconds.
Warning: Simulation tolerance relaxed to achieve convergence from 1.0005957144221637e-02 to 1.0005957144221648e-02 seconds.
Warning: Simulation tolerance relaxed to achieve convergence from 1.0005957144221648e-02 to 1.0005957144221658e-02 seconds.
Warning: Simulation tolerance relaxed to achieve convergence from 1.0005957144221658e-02 to 1.0005957144221669e-02 seconds.
Warning: Simulation tolerance relaxed to achieve convergence from 1.0005957144221669e-02 to 1.0005957144221679e-02 seconds.
Warning: Simulation tolerance relaxed to achieve convergence from 1.0005957144221679e-02 to 1.0005957144221689e-02 seconds.
Warning: Simulation tolerance relaxed to achieve convergence from 1.0005957144221689e-02 to 1.0005957144221700e-02 seconds.
Warning: Simulation tolerance relaxed to achieve convergence from 1.0005957144221700e-02 to 1.0005957144221710e-02 seconds.
Warning: Simulation tolerance relaxed to achieve convergence from 1.0005957144221710e-02 to 1.0005957144221721e-02 seconds.
Warning: Simulation tolerance relaxed to achieve convergence from 1.0005957144221721e-02 to 1.0005957144221731e-02 seconds.
Warning: Simulation tolerance relaxed to achieve convergence from 1.0005957144221731e-02 to 1.0005957144221742e-02 seconds.
Warning: Simulation tolerance relaxed to achieve convergence from 1.0005957144221742e-02 to 1.0005957144221752e-02 seconds.
Warning: Simulation tolerance relaxed to achieve convergence from 1.0005957144221752e-02 to 1.0005957144221762e-02 seconds.
Warning: Simulation tolerance relaxed to achieve convergence from 1.0005957144221762e-02 to 1.0005957144221773e-02 seconds.
Warning: Simulation tolerance relaxed to achieve convergence from 1.0005957144221773e-02 to 1.0005957144221783e-02 seconds.
Warning: Simulation tolerance relaxed to achieve convergence from 1.0005957144221783e-02 to 1.0005957144221794e-02 seconds.
Warning: Simulation tolerance relaxed to achieve convergence from 1.0005957144221794e-02 to 1.0005957144221804e-02 seconds.
Warning: Simulation tolerance relaxed to achieve convergence from 1.0005957144221804e-02 to 1.0005957144221814e-02 seconds.
Warning: Simulation tolerance relaxed to achieve convergence from 1.0005957144221814e-02 to 1.0005957144221825e-02 seconds.
Warning: Simulation tolerance relaxed to achieve convergence from 1.0005957144221825e-02 to 1.0005957144221835e-02 seconds.
Warning: Simulation tolerance relaxed to achieve convergence from 1.0005957144221835e-02 to 1.0005957144221846e-02 seconds.
Warning: Simulation tolerance relaxed to achieve convergence from 1.0005957144221846e-02 to 1.0005957144221856e-02 seconds.
Warning: Simulation tolerance relaxed to achieve convergence from 1.0005957144221856e-02 to 1.0005957144221866e-02 seconds.
Warning: Simulation tolerance relaxed to achieve convergence from 1.0005957144221866e-02 to 1.0005957144221877e-02 seconds.
Warning: Simulation tolerance relaxed to achieve convergence from 1.0005957144221877e-02 to 1.0005957144221887e-02 seconds.
Warning: Simulation tolerance relaxed to achieve convergence from 1.0005957144221887e-02 to 1.0005957144221898e-02 seconds.
Warning: Simulation tolerance relaxed to achieve convergence from 1.0005957144221898e-02 to 1.0005957144221908e-02 seconds.
Warning: Simulation tolerance relaxed to achieve convergence from 1.0005957144221908e-02 to 1.0005957144221918e-02 seconds.
Warning: Simulation tolerance relaxed to achieve convergence from 1.0005957144221918e-02 to 1.0005957144221929e-02 seconds.
Warning: Simulation tolerance relaxed to achieve convergence from 1.0005957144221929e-02 to 1.0005957144221939e-02 seconds.
Warning: Simulation tolerance relaxed to achieve convergence from 1.0005957144221939e-02 to 1.0005957144221950e-02 seconds.
Warning: Simulation tolerance relaxed to achieve convergence from 1.0005957144221950e-02 to 1.0005957144221960e-02 seconds.
Warning: Simulation tolerance relaxed to achieve convergence from 1.0005957144221960e-02 to 1.0005957144221971e-02 seconds.
Warning: Simulation tolerance relaxed to achieve convergence from 1.0005957144221971e-02 to 1.0005957144221981e-02 seconds.
Warning: Simulation tolerance relaxed to achieve convergence from 1.0005957144221981e-02 to 1.0005957144221991e-02 seconds.
Warning: Simulation tolerance relaxed to achieve convergence from 1.0005957144221991e-02 to 1.0005957144222002e-02 seconds.
Warning: Simulation tolerance relaxed to achieve convergence from 1.0005957144222002e-02 to 1.0005957144222012e-02 seconds.
Warning: Simulation tolerance relaxed to achieve convergence from 1.0005957144222012e-02 to 1.0005957144222023e-02 seconds.
Warning: Simulation tolerance relaxed to achieve convergence from 1.0005957144222023e-02 to 1.0005957144222033e-02 seconds.
Warning: Simulation tolerance relaxed to achieve convergence from 1.0005957144222033e-02 to 1.0005957144222043e-02 seconds.
Warning: Simulation tolerance relaxed to achieve convergence from 1.0005957144222043e-02 to 1.0005957144222054e-02 seconds.
Warning: Simulation tolerance relaxed to achieve convergence from 1.0005957144222054e-02 to 1.0005957144222064e-02 seconds.
Warning: Simulation tolerance relaxed to achieve convergence from 1.0005957144222064e-02 to 1.0005957144222075e-02 seconds.
Warning: Simulation tolerance relaxed to achieve convergence from 1.0005957144222075e-02 to 1.0005957144222085e-02 seconds.
Warning: Simulation tolerance relaxed to achieve convergence from 1.0005957144222085e-02 to 1.0005957144222095e-02 seconds.
Warning: Simulation tolerance relaxed to achieve convergence from 1.0005957144222095e-02 to 1.0005957144222106e-02 seconds.
Warning: Simulation tolerance relaxed to achieve convergence from 1.0005957144222106e-02 to 1.0005957144222116e-02 seconds.
Warning: Simulation tolerance relaxed to achieve convergence from 1.0005957144222116e-02 to 1.0005957144222127e-02 seconds.
Warning: Simulation tolerance relaxed to achieve convergence from 1.0005957144222127e-02 to 1.0005957144222137e-02 seconds.
Warning: Simulation tolerance relaxed to achieve convergence from 1.0005957144222137e-02 to 1.0005957144222147e-02 seconds.
Warning: Simulation tolerance relaxed to achieve convergence from 1.0005957144222147e-02 to 1.0005957144222158e-02 seconds.
Warning: Simulation tolerance relaxed to achieve convergence from 1.0005957144222158e-02 to 1.0005957144222168e-02 seconds.
Warning: Simulation tolerance relaxed to achieve convergence from 1.0005957144222168e-02 to 1.0005957144222179e-02 seconds.
Warning: Simulation tolerance relaxed to achieve convergence from 1.0005957144222179e-02 to 1.0005957144222189e-02 seconds.
Warning: Simulation tolerance relaxed to achieve convergence from 1.0005957144222189e-02 to 1.0005957144222200e-02 seconds.
Warning: Simulation tolerance relaxed to achieve convergence from 1.0005957144222200e-02 to 1.0005957144222210e-02 seconds.
Warning: Simulation tolerance relaxed to achieve convergence from 1.0005957144222210e-02 to 1.0005957144222220e-02 seconds.
Warning: Simulation tolerance relaxed to achieve convergence from 1.0005957144222220e-02 to 1.0005957144222231e-02 seconds.
Warning: Simulation tolerance relaxed to achieve convergence from 1.0005957144222231e-02 to 1.0005957144222241e-02 seconds.
Warning: Simulation tolerance relaxed to achieve convergence from 1.0005957144222241e-02 to 1.0005957144222252e-02 seconds.
Warning: Simulation tolerance relaxed to achieve convergence from 1.0005957144222252e-02 to 1.0005957144222262e-02 seconds.
Warning: Simulation tolerance relaxed to achieve convergence from 1.0005957144222262e-02 to 1.0005957144222272e-02 seconds.
Warning: Simulation tolerance relaxed to achieve convergence from 1.0005957144222272e-02 to 1.0005957144222283e-02 seconds.
Warning: Simulation tolerance relaxed to achieve convergence from 1.0005957144222283e-02 to 1.0005957144222293e-02 seconds.
Warning: Simulation tolerance relaxed to achieve convergence from 1.0005957144222293e-02 to 1.0005957144222304e-02 seconds.
Warning: Simulation tolerance relaxed to achieve convergence from 1.0005957144222304e-02 to 1.0005957144222314e-02 seconds.
Warning: Simulation tolerance relaxed to achieve convergence from 1.0005957144222314e-02 to 1.0005957144222324e-02 seconds.
Warning: Simulation tolerance relaxed to achieve convergence from 1.0005957144222324e-02 to 1.0005957144222335e-02 seconds.
Warning: Simulation tolerance relaxed to achieve convergence from 1.0005957144222335e-02 to 1.0005957144222345e-02 seconds.
Warning: Simulation tolerance relaxed to achieve convergence from 1.0005957144222345e-02 to 1.0005957144222356e-02 seconds.
Warning: Simulation tolerance relaxed to achieve convergence from 1.0005957144222356e-02 to 1.0005957144222366e-02 seconds.
Warning: Simulation tolerance relaxed to achieve convergence from 1.0005957144222366e-02 to 1.0005957144222376e-02 seconds.
Warning: Simulation tolerance relaxed to achieve convergence from 1.0005957144222376e-02 to 1.0005957144222387e-02 seconds.
Warning: Simulation tolerance relaxed to achieve convergence from 1.0005957144222387e-02 to 1.0005957144222397e-02 seconds.
Warning: Simulation tolerance relaxed to achieve convergence from 1.0005957144222397e-02 to 1.0005957144222408e-02 seconds.
Warning: Simulation tolerance relaxed to achieve convergence from 1.0005957144222408e-02 to 1.0005957144222418e-02 seconds.
Warning: Simulation tolerance relaxed to achieve convergence from 1.0005957144222418e-02 to 1.0005957144222428e-02 seconds.
Warning: Simulation tolerance relaxed to achieve convergence from 1.0005957144222428e-02 to 1.0005957144222439e-02 seconds.
Warning: Simulation tolerance relaxed to achieve convergence from 1.0005957144222439e-02 to 1.0005957144222449e-02 seconds.
Warning: Simulation tolerance relaxed to achieve convergence from 1.0005957144222449e-02 to 1.0005957144222460e-02 seconds.
Warning: Simulation tolerance relaxed to achieve convergence from 1.0005957144222460e-02 to 1.0005957144222470e-02 seconds.
Warning: Simulation tolerance relaxed to achieve convergence from 1.0005957144222470e-02 to 1.0005957144222481e-02 seconds.
Warning: Simulation tolerance relaxed to achieve convergence from 1.0005957144222481e-02 to 1.0005957144222491e-02 seconds.
Warning: Simulation tolerance relaxed to achieve convergence from 1.0005957144222491e-02 to 1.0005957144222501e-02 seconds.
Warning: Simulation tolerance relaxed to achieve convergence from 1.0005957144222501e-02 to 1.0005957144222512e-02 seconds.
Warning: Simulation tolerance relaxed to achieve convergence from 1.0005957144222512e-02 to 1.0005957144222522e-02 seconds.
Warning: Simulation tolerance relaxed to achieve convergence from 1.0005957144222522e-02 to 1.0005957144222533e-02 seconds.
Warning: Simulation tolerance relaxed to achieve convergence from 1.0005957144222533e-02 to 1.0005957144222543e-02 seconds.
Warning: Simulation tolerance relaxed to achieve convergence from 1.0005957144222543e-02 to 1.0005957144222553e-02 seconds.
Warning: Simulation tolerance relaxed to achieve convergence from 1.0005957144222553e-02 to 1.0005957144222564e-02 seconds.
Warning: Simulation tolerance relaxed to achieve convergence from 1.0005957144222564e-02 to 1.0005957144222574e-02 seconds.
Warning: Simulation tolerance relaxed to achieve convergence from 1.0005957144222574e-02 to 1.0005957144222585e-02 seconds.
Warning: Simulation tolerance relaxed to achieve convergence from 1.0005957144222585e-02 to 1.0005957144222595e-02 seconds.
Warning: Simulation tolerance relaxed to achieve convergence from 1.0005957144222595e-02 to 1.0005957144222605e-02 seconds.
Warning: Simulation tolerance relaxed to achieve convergence from 1.0005957144222605e-02 to 1.0005957144222616e-02 seconds.
Warning: Simulation tolerance relaxed to achieve convergence from 1.0005957144222616e-02 to 1.0005957144222626e-02 seconds.
Warning: Simulation tolerance relaxed to achieve convergence from 1.0005957144222626e-02 to 1.0005957144222637e-02 seconds.
Warning: Simulation tolerance relaxed to achieve convergence from 1.0005957144222637e-02 to 1.0005957144222647e-02 seconds.
Warning: Simulation tolerance relaxed to achieve convergence from 1.0005957144222647e-02 to 1.0005957144222657e-02 seconds.
Warning: Simulation tolerance relaxed to achieve convergence from 1.0005957144222657e-02 to 1.0005957144222668e-02 seconds.
Warning: Simulation tolerance relaxed to achieve convergence from 1.0005957144222668e-02 to 1.0005957144222678e-02 seconds.
Warning: Simulation tolerance relaxed to achieve convergence from 1.0005957144222678e-02 to 1.0005957144222689e-02 seconds.
Warning: Simulation tolerance relaxed to achieve convergence from 1.0005957144222689e-02 to 1.0005957144222699e-02 seconds.
Warning: Simulation tolerance relaxed to achieve convergence from 1.0005957144222699e-02 to 1.0005957144222710e-02 seconds.
Warning: Simulation tolerance relaxed to achieve convergence from 1.0005957144222710e-02 to 1.0005957144222720e-02 seconds.
Warning: Simulation tolerance relaxed to achieve convergence from 1.0005957144222720e-02 to 1.0005957144222730e-02 seconds.
Warning: Simulation tolerance relaxed to achieve convergence from 1.0005957144222730e-02 to 1.0005957144222741e-02 seconds.
Warning: Simulation tolerance relaxed to achieve convergence from 1.0005957144222741e-02 to 1.0005957144222751e-02 seconds.
Warning: Simulation tolerance relaxed to achieve convergence from 1.0005957144222751e-02 to 1.0005957144222762e-02 seconds.
Warning: Simulation tolerance relaxed to achieve convergence from 1.0005957144222762e-02 to 1.0005957144222772e-02 seconds.
Warning: Simulation tolerance relaxed to achieve convergence from 1.0005957144222772e-02 to 1.0005957144222782e-02 seconds.
Warning: Simulation tolerance relaxed to achieve convergence from 1.0005957144222782e-02 to 1.0005957144222793e-02 seconds.
Warning: Simulation tolerance relaxed to achieve convergence from 1.0005957144222793e-02 to 1.0005957144222803e-02 seconds.
Warning: Simulation tolerance relaxed to achieve convergence from 1.0005957144222803e-02 to 1.0005957144222814e-02 seconds.
Warning: Simulation tolerance relaxed to achieve convergence from 1.0005957144222814e-02 to 1.0005957144222824e-02 seconds.
Warning: Simulation tolerance relaxed to achieve convergence from 1.0005957144222824e-02 to 1.0005957144222834e-02 seconds.
Warning: Simulation tolerance relaxed to achieve convergence from 1.0005957144222834e-02 to 1.0005957144222845e-02 seconds.
Warning: Simulation tolerance relaxed to achieve convergence from 1.0005957144222845e-02 to 1.0005957144222855e-02 seconds.
Warning: Simulation tolerance relaxed to achieve convergence from 1.0005957144222855e-02 to 1.0005957144222866e-02 seconds.
Warning: Simulation tolerance relaxed to achieve convergence from 1.0005957144222866e-02 to 1.0005957144222876e-02 seconds.
Warning: Simulation tolerance relaxed to achieve convergence from 1.0005957144222876e-02 to 1.0005957144222886e-02 seconds.
Warning: Simulation tolerance relaxed to achieve convergence from 1.0005957144222886e-02 to 1.0005957144222897e-02 seconds.
Warning: Simulation tolerance relaxed to achieve convergence from 1.0005957144222897e-02 to 1.0005957144222907e-02 seconds.
Warning: Simulation tolerance relaxed to achieve convergence from 1.0005957144222907e-02 to 1.0005957144222918e-02 seconds.
Warning: Simulation tolerance relaxed to achieve convergence from 1.0005957144222918e-02 to 1.0005957144222928e-02 seconds.
Warning: Simulation tolerance relaxed to achieve convergence from 1.0005957144222928e-02 to 1.0005957144222938e-02 seconds.
Warning: Simulation tolerance relaxed to achieve convergence from 1.0005957144222938e-02 to 1.0005957144222949e-02 seconds.
Warning: Simulation tolerance relaxed to achieve convergence from 1.0005957144222949e-02 to 1.0005957144222959e-02 seconds.
Warning: Simulation tolerance relaxed to achieve convergence from 1.0005957144222959e-02 to 1.0005957144222970e-02 seconds.
Warning: Simulation tolerance relaxed to achieve convergence from 1.0005957144222970e-02 to 1.0005957144222980e-02 seconds.
Warning: Simulation tolerance relaxed to achieve convergence from 1.0005957144222980e-02 to 1.0005957144222991e-02 seconds.
Warning: Simulation tolerance relaxed to achieve convergence from 1.0005957144222991e-02 to 1.0005957144223001e-02 seconds.
Warning: Simulation tolerance relaxed to achieve convergence from 1.0005957144223001e-02 to 1.0005957144223011e-02 seconds.
Warning: Simulation tolerance relaxed to achieve convergence from 1.0005957144223011e-02 to 1.0005957144223022e-02 seconds.
Warning: Simulation tolerance relaxed to achieve convergence from 1.0005957144223022e-02 to 1.0005957144223032e-02 seconds.
Warning: Simulation tolerance relaxed to achieve convergence from 1.0005957144223032e-02 to 1.0005957144223043e-02 seconds.
Warning: Simulation tolerance relaxed to achieve convergence from 1.0005957144223043e-02 